 WAVEWATCH III 19680606 000005 -0.100E+00  0.299E+02 301 -0.100E+00  0.100E+00   3 .t0m  0.0100 s          1 1 (1X,32I4)  -999
        -999        -999        -999        -999        -999        -999
        -999        -999        -999        -999        -999        -999
        -999        -999        -999        -999        -999        -999
        -999        -999        -999        -999        -999        -999
        -999        -999        -999        -999        -999        -999
        -999        -999        -999        -999        -999        -999
        -999        -999        -999        -999        -999        -999
        -999        -999        -999        -999        -999        -999
        -999        -999        -999        -999        -999        -999
        -999        -999        -999        -999        -999        -999
        -999        -999        -999        -999        -999        -999
        -999        -999        -999        -999        -999        -999
        -999        -999        -999        -999        -999        -999
        -999        -999        -999        -999        -999        -999
        -999        -999        -999        -999        -999        -999
        -999        -999        -999        -999        -999        -999
        -999        -999        -999        -999        -999        -999
        -999        -999        -999        -999        -999        -999
        -999        -999        -999        -999        -999        -999
        -999        -999        -999        -999        -999        -999
        -999        -999        -999        -999        -999        -999
        -999        -999        -999        -999        -999        -999
        -999        -999        -999        -999        -999        -999
        -999        -999        -999        -999        -999        -999
        -999        -999        -999        -999        -999        -999
        -999        -999        -999        -999        -999        -999
        -999        -999        -999        -999        -999        -999
        -999        -999        -999        -999        -999        -999
        -999        -999        -999        -999        -999        -999
        -999        -999        -999        -999        -999        -999
        -999        -999        -999        -999        -999        -999
        -999        -999        -999        -999        -999        -999
        -999        -999        -999        -999        -999        -999
        -999        -999        -999        -999        -999        -999
        -999        -999        -999        -999        -999        -999
        -999        -999        -999        -999        -999        -999
        -999        -999        -999        -999        -999        -999
        -999        -999        -999        -999        -999        -999
        -999        -999        -999        -999        -999        -999
        -999        -999        -999        -999        -999        -999
        -999        -999        -999        -999        -999        -999
        -999        -999        -999        -999        -999        -999
        -999        -999        -999        -999        -999        -999
        -999        -999        -999        -999        -999        -999
        -999        -999        -999        -999        -999        -999
        -999        -999        -999        -999        -999        -999
        -999        -999        -999        -999        -999        -999
        -999        -999        -999        -999        -999        -999
        -999        -999        -999        -999        -999        -999
        -999        -999        -999        -999        -999        -999
        -999
        -999         160         160         160         160         160
         160         160         160         160         160         160
         160         160         160         160         160         161
         161         161         161         161         161         161
         161         161         161         161         161         161
         161         161         161         161         161         161
         161         161         161         161         161         161
         161         161         161         161         161         161
         161         161         161         161         161         161
         161         161         161         161         161         161
         161         161         161         162         162         162
         162         162         162         162         162         163
         163         163         163         163         163         163
         164         164         164         164         164         164
         164         165         165         165         165         165
         165         165         166         166         166         166
         166         166         167         167         167         167
         167         167         167         168         168         168
         168         168         168         168         168         169
         169         169         169         169         169         169
         169         170         170         170         170         169
         169         169         169         169         169         169
         168         168         168         168         168         167
         167         167         167         167         166         165
         165         164         164         163         163         162
         161         161         160         160         159         159
         159         158         158         157         157         156
         156         155         155         155         154         154
         153         153         152         152         152         151
         151         151         151         150         150         150
         150         149         149         149         149         149
         149         149         149         149         149         149
         149         149         149         149         149         149
         149         149         149         149         149         149
         150         150         150         150         150         150
         150         150         150         151         151         151
         152         152         153         153         154         154
         155         156         156         157         157         158
         158         159         159         160         160         161
         161         162         162         163         163         164
         164         164         165         165         166         166
         166         167         167         167         167         167
         167         168         168         168         168         168
         168         168         169         168         169         169
         169         169         169         169         169         169
         169        -999        -999        -999        -999        -999
        -999        -999        -999        -999        -999        -999
        -999        -999        -999        -999        -999        -999
        -999        -999        -999        -999        -999        -999
        -999        -999        -999        -999        -999        -999
        -999
        -999        -999        -999        -999        -999        -999
        -999        -999        -999        -999        -999        -999
        -999        -999        -999        -999        -999        -999
        -999        -999        -999        -999        -999        -999
        -999        -999        -999        -999        -999        -999
        -999        -999        -999        -999        -999        -999
        -999        -999        -999        -999        -999        -999
        -999        -999        -999        -999        -999        -999
        -999        -999        -999        -999        -999        -999
        -999        -999        -999        -999        -999        -999
        -999        -999        -999        -999        -999        -999
        -999        -999        -999        -999        -999        -999
        -999        -999        -999        -999        -999        -999
        -999        -999        -999        -999        -999        -999
        -999        -999        -999        -999        -999        -999
        -999        -999        -999        -999        -999        -999
        -999        -999        -999        -999        -999        -999
        -999        -999        -999        -999        -999        -999
        -999        -999        -999        -999        -999        -999
        -999        -999        -999        -999        -999        -999
        -999        -999        -999        -999        -999        -999
        -999        -999        -999        -999        -999        -999
        -999        -999        -999        -999        -999        -999
        -999        -999        -999        -999        -999        -999
        -999        -999        -999        -999        -999        -999
        -999        -999        -999        -999        -999        -999
        -999        -999        -999        -999        -999        -999
        -999        -999        -999        -999        -999        -999
        -999        -999        -999        -999        -999        -999
        -999        -999        -999        -999        -999        -999
        -999        -999        -999        -999        -999        -999
        -999        -999        -999        -999        -999        -999
        -999        -999        -999        -999        -999        -999
        -999        -999        -999        -999        -999        -999
        -999        -999        -999        -999        -999        -999
        -999        -999        -999        -999        -999        -999
        -999        -999        -999        -999        -999        -999
        -999        -999        -999        -999        -999        -999
        -999        -999        -999        -999        -999        -999
        -999        -999        -999        -999        -999        -999
        -999        -999        -999        -999        -999        -999
        -999        -999        -999        -999        -999        -999
        -999        -999        -999        -999        -999        -999
        -999        -999        -999        -999        -999        -999
        -999        -999        -999        -999        -999        -999
        -999        -999        -999        -999        -999        -999
        -999        -999        -999        -999        -999        -999
        -999        -999        -999        -999        -999        -999
        -999        -999        -999        -999        -999        -999
        -999        -999        -999        -999        -999        -999
        -999
