 
 Running now options: run_test -c Intel -S -s MPI -s NO_PDLIB -w work_a -g a -f -p mpirun -n 24 /home/xychen/ADC-WW3-NWM-NEMS/WW3/model ww3_tp2.17_shell
 
 
                *****************************
              ***   WAVEWATCH III setup     ***
                *****************************
 
 
[INFO] local env file wwatch3.env found in /home/xychen/ADC-WW3-NWM-NEMS/WW3/model/bin/wwatch3.env
   Setup file /home/xychen/ADC-WW3-NWM-NEMS/WW3/model/bin/wwatch3.env found
      Printer (listings)          : 
      auxiliary FORTRAN compiler  : ifort
      auxiliary C compiler        : cc
      Source directory            : /home/xychen/ADC-WW3-NWM-NEMS/WW3/model
      Scratch directory           : /home/xychen/ADC-WW3-NWM-NEMS/WW3/model/tmp
      Save source code            : yes
      Save listings               : yes
 
   Setup makefile for auxiliary programs
 
 
   Compile auxiliary programs
make: Entering directory `/home/xychen/ADC-WW3-NWM-NEMS/WW3/model/aux'
make: Nothing to be done for `all'.
make: Leaving directory `/home/xychen/ADC-WW3-NWM-NEMS/WW3/model/aux'
 
 
   Setup comp & link files
      copy /home/xychen/ADC-WW3-NWM-NEMS/WW3/model/bin/comp.Intel => /home/xychen/ADC-WW3-NWM-NEMS/WW3/model/bin/comp
      copy /home/xychen/ADC-WW3-NWM-NEMS/WW3/model/bin/link.Intel => /home/xychen/ADC-WW3-NWM-NEMS/WW3/model/bin/link
 
   Create required model subdirectories
 
Finished setting up WAVEWATCH III
 
 
 
                    ==================================   
                  ======> TEST RUN WAVEWATCH III <====== 
                    ==================================   
 
#############################################################################
#                                                                           #
# ww3_tp2.17 Test script for WW-III, unstructured grid.                     #
# Solvers:                                                                  #
#  > Explicit                                                               #
#      > Conventional method Card Deck  (ww3_grid_a.inp)                    #
#      > domain decomposition  (ww3_grid_b.inp)                             #
#  > Implicit (domain decomposition) (ww3_grid_c.inp)                       #
# Grid:                                                                     # 
# Shinnecock Inlet                                                          #
# --------------------------------------------------------------------------#
# This grid is taken from an ADCIRC example problem, see:                   #
#  http://adcirc.org/home/documentation/example-problems/shinnecock-inlet-ny#
#  -with-tidal-forcing-example/                                             #
# "This example problem was developed as part of study of tidal hydrodynami-#
# -cs in the vicinity of Shinnecock Inlet, NY, at the U.S. Army Corps of En-#
# -gineers Coastal Hydraulics Laboratory                                    #
#   (Williams et al., 1998; Morang, 1999; Miliello et al., 2000)."          #
#Grid Sizes                                                                 #
#===========================================================================#
# #of Nodes |  # of Elements  |  lowest res  |  # of open boundary nodes    #
#---------------------------------------------------------------------------#
#   3,070   |      5,855      |    ~75 m     |            75                #
#---------------------------------------------------------------------------#
#                                                                           #
#  Field Forcing: Water level (ASCII), Current (NetCDF) and Wind (ASCII)    #
#  Lateral Forcing: open boundary condtion (ASCII)                          #
#                                                                           #
# Model should be compiled with the switches :                              #
#                                                                           #
# F90 NOGRB TRKNC DIST MPI SCRIP MLIM PR3 UQ NC4 FLX0 PDLIB LN1 ST4         #
# STAB0 NL1 BT4 DB1 TR0 BS0 IS0 IC0 REF0 XX0 WNT2 WNX1 RWND CRT1 CRX1 O0    #
# O1 O2 O2a O2b O2c O3 O4 O5 O6 O7                                          #
#                                                                           #
#  -the domain decomposition and implicit scheme need PDLIB switch          #
#                                                                           #
#   The choice of propagation schemes for unstructured grids is done via    #
#   namelists.                                                              #
#                                                                           #
# Remarks :                                                                 #
#                                                                           #
# - No other optional switches should be used.                              #
#                                                                           #
#  Sample run_test commands :                                               #
#  ./bin/run_test -c Intel -S -s MPI -s NO_PDLIB -w work_a -g a -f -p       #
#   mpirun -n 24 ../model ww3_tp2.17                                        #
#                                                                           #
#                   Ali Abdolali, Aron Roland, Jessica Meixner, May 2018    #
#                                                   Last Mod : May 2018     #
#                                                                           #
#############################################################################
 
 Input directory: /home/xychen/ADC-WW3-NWM-NEMS/WW3/regtests/ww3_tp2.17_shell/input
 Switch file: /home/xychen/ADC-WW3-NWM-NEMS/WW3/regtests/ww3_tp2.17_shell/input/switch_NO_PDLIB
 
 
+--------------------+
|  Grid preprocessor |
+--------------------+
 
 
                *****************************
              ***   WAVEWATCH III make      ***
                *****************************
 
Main directory    : /home/xychen/ADC-WW3-NWM-NEMS/WW3/model
Scratch directory : /home/xychen/ADC-WW3-NWM-NEMS/WW3/model/tmp
Save source codes : yes
Save listings     : yes
 
[INFO] list of the programs selected : ww3_grid
 
Processing ww3_grid
---------------------
ad3 : processing w3iogrmd 
ad3 : processing ww3_grid 
      Linking ww3_grid
 
 
                       **********************
                     *** end of compilation ***
                       **********************
 
   Processing /home/xychen/ADC-WW3-NWM-NEMS/WW3/regtests/ww3_tp2.17_shell/input/ww3_grid_a.inp
   Screen output routed to /home/xychen/ADC-WW3-NWM-NEMS/WW3/regtests/ww3_tp2.17_shell/work_a/ww3_grid_a.out
 
+---------------------+
| Boundary conditions |
+---------------------+
 
 
                *****************************
              ***   WAVEWATCH III make      ***
                *****************************
 
Main directory    : /home/xychen/ADC-WW3-NWM-NEMS/WW3/model
Scratch directory : /home/xychen/ADC-WW3-NWM-NEMS/WW3/model/tmp
Save source codes : yes
Save listings     : yes
 
[INFO] list of the programs selected : ww3_bounc
 
Processing ww3_bounc
---------------------
ad3 : processing w3cspcmd 
ad3 : processing w3sdb1md 
ad3 : processing w3sbt4md 
ad3 : processing w3nmlbouncmd 
ad3 : processing w3iobcmd 
ad3 : processing ww3_bounc 
      Linking ww3_bounc
 
 
                       **********************
                     *** end of compilation ***
                       **********************
 
   Processing /home/xychen/ADC-WW3-NWM-NEMS/WW3/regtests/ww3_tp2.17_shell/input/ww3_bounc.inp
   Screen output routed to /home/xychen/ADC-WW3-NWM-NEMS/WW3/regtests/ww3_tp2.17_shell/work_a/ww3_bounc.out
 
+-------------------------------+
| Prep of NetCDF forcing fields |
+-------------------------------+
 
 
                *****************************
              ***   WAVEWATCH III make      ***
                *****************************
 
Main directory    : /home/xychen/ADC-WW3-NWM-NEMS/WW3/model
Scratch directory : /home/xychen/ADC-WW3-NWM-NEMS/WW3/model/tmp
Save source codes : yes
Save listings     : yes
 
[INFO] list of the programs selected : ww3_prnc
 
Processing ww3_prnc
---------------------
ad3 : processing w3fldsmd 
ad3 : processing w3nmlprncmd 
ad3 : processing ww3_prnc 
      Linking ww3_prnc
 
 
                       **********************
                     *** end of compilation ***
                       **********************
 
   Processing /home/xychen/ADC-WW3-NWM-NEMS/WW3/regtests/ww3_tp2.17_shell/input/ww3_prnc_current.inp
   Screen output routed to /home/xychen/ADC-WW3-NWM-NEMS/WW3/regtests/ww3_tp2.17_shell/work_a/ww3_prnc_current.out
   Processing /home/xychen/ADC-WW3-NWM-NEMS/WW3/regtests/ww3_tp2.17_shell/input/ww3_prnc_level.inp
   Screen output routed to /home/xychen/ADC-WW3-NWM-NEMS/WW3/regtests/ww3_tp2.17_shell/work_a/ww3_prnc_level.out
   Processing /home/xychen/ADC-WW3-NWM-NEMS/WW3/regtests/ww3_tp2.17_shell/input/ww3_prnc_wind.inp
   Screen output routed to /home/xychen/ADC-WW3-NWM-NEMS/WW3/regtests/ww3_tp2.17_shell/work_a/ww3_prnc_wind.out
 
+--------------------+
|    Main program    |
+--------------------+
 
 
                *****************************
              ***   WAVEWATCH III make      ***
                *****************************
 
Main directory    : /home/xychen/ADC-WW3-NWM-NEMS/WW3/model
Scratch directory : /home/xychen/ADC-WW3-NWM-NEMS/WW3/model/tmp
Save source codes : yes
Save listings     : yes
 
[INFO] list of the programs selected : ww3_shel
Making makefile ...
 
                *****************************
              ***   WAVEWATCH III makefile  ***
                *****************************
 
switch = /home/xychen/ADC-WW3-NWM-NEMS/WW3/model/bin/switch
   new linear input
   new bottom friction
   new Diagnostic stress comp
   new wind interpolation in time
   new wind vs. current definition
   new use of netcdf for tracking of wave systems
   Checking all subroutines for modules (this may take a while) ...
 
Processing ww3_shel
---------------------
ad3 : processing w3gdatmd 
ad3 : processing w3odatmd 
ad3 : processing w3idatmd 
ad3 : processing w3timemd 
ad3 : processing w3adatmd 
ad3 : processing w3dispmd 
ad3 : processing wmmdatmd 
ad3 : processing w3sbt4md 
ad3 : processing w3sdb1md 
ad3 : processing w3sln1md 
ad3 : processing w3flx1md 
ad3 : processing w3fldsmd 
ad3 : processing w3src4md 
ad3 : processing w3nmlshelmd 
ad3 : processing w3partmd 
ad3 : processing w3triamd 
ad3 : processing w3snl1md 
ad3 : processing w3parall 
ad3 : processing w3iogrmd 
ad3 : processing w3wdatmd 
ad3 : processing w3iosfmd 
ad3 : processing w3iogomd 
ad3 : processing w3iotrmd 
ad3 : processing w3pro3md 
ad3 : processing w3profsmd 
ad3 : processing w3srcemd 
ad3 : processing w3updtmd 
ad3 : processing w3wdasmd 
ad3 : processing w3iopomd 
ad3 : processing w3iorsmd 
ad3 : processing w3iobcmd 
ad3 : processing w3initmd 
ad3 : processing w3wavemd 
ad3 : processing ww3_shel 
      Linking ww3_shel
 
 
                       **********************
                     *** end of compilation ***
                       **********************
 
   Processing /home/xychen/ADC-WW3-NWM-NEMS/WW3/regtests/ww3_tp2.17_shell/input/ww3_shel.inp
   Screen output copied to /home/xychen/ADC-WW3-NWM-NEMS/WW3/regtests/ww3_tp2.17_shell/work_a/ww3_shel.out

                     *** WAVEWATCH III Program shell ***      
               ===============================================

  Comment character is '$'


  Input fields : 
 --------------------------------------------------
       water levels   YES/--                      
       currents       YES/--                      
       winds          YES/--                      
       ice fields     ---/NO                      
       mean param.    ---/NO                      
       1D spectra     ---/NO                      
       2D spectra     ---/NO                      
 
            Fields   : Wind speed          
                       Wave height         
                       Radiation stresses  
            Point  1 :   -72.10   39.67  a01       
                   2 :   -72.11   39.72  a02       
                   3 :   -72.13   39.77  a03       
                   4 :   -72.14   39.81  a04       
                   5 :   -72.16   39.86  a05       
                   6 :   -72.18   39.91  a06       
                   7 :   -72.19   39.95  a07       
                   8 :   -72.21   40.00  a08       
                   9 :   -72.22   40.05  a09       
                  10 :   -72.24   40.09  a10       
                  11 :   -72.25   40.14  a11       
                  12 :   -72.26   40.19  a12       
                  13 :   -72.28   40.23  a13       
                  14 :   -72.29   40.28  a14       
                  15 :   -72.31   40.33  a15       
                  16 :   -72.32   40.37  a16       
                  17 :   -72.34   40.42  a17       
                  18 :   -72.36   40.47  a18       
                  19 :   -72.37   40.51  a19       
                  20 :   -72.39   40.56  a20       
                  21 :   -72.40   40.60  a21       
                  22 :   -72.42   40.65  a22       
                  23 :   -72.43   40.70  a23       
                  24 :   -72.44   40.74  a24       
                  25 :   -72.46   40.79  a25       
                  26 :   -72.47   40.84  a26       
                  27 :   -72.49   40.88  a27       
                  28 :   -72.50   40.93  a28       
                  29 :   -72.52   40.98  a29       
                  30 :   -72.54   41.03  a30       
                  31 :   -72.55   41.07  a31       
                  32 :   -72.57   41.12  a32       
                  33 :   -72.58   41.17  a33       
                  34 :   -72.60   41.21  a34       
                  35 :   -72.61   41.26  a35       
                  36 :   -72.62   41.31  a36       
                  37 :   -72.64   41.35  a37       
                  38 :   -72.65   41.40  a38       
                  39 :   -72.67   41.44  a39       
                  40 :   -72.68   41.49  a40       
                  41 :   -72.70   41.54  a41       

  Initializations :
 --------------------------------------------------
       Preparing input files ...
            water levels : file OK
            currents     : file OK
            winds        : file OK
            ice fields   : file not needed
            mean param.  : file not needed
            1D spectra   : file not needed
            2D spectra   : file not needed

  Time interval : 
 --------------------------------------------------
       Starting time : 2008/09/04 12:00:00 UTC
       Ending time   : 2008/09/12 00:00:00 UTC


  Output requests : 
 --------------------------------------------------
       Multiple dedicated output processes.

       Type 1 : Fields of mean wave parameters
      -----------------------------------------
            From     : 2008/09/04 12:00:00 UTC
            To       : 2008/09/12 00:00:00 UTC
            Interval :            01:00:00


       Type 2 : Point output                  
      -----------------------------------------
            From     : 2008/09/04 12:00:00 UTC
            To       : 2008/09/12 00:00:00 UTC
            Interval :            01:00:00


       Type 4 : Restart files                 
      -----------------------------------------
            From     : 2008/09/11 00:00:00 UTC
            To       : 2008/09/12 00:00:00 UTC
            Interval :            01:00:00

            output dates out of run dates : Track point output deactivated
            output dates out of run dates : Nesting data deactivated
            output dates out of run dates : Partitioned wave field data deactivated
       Wave model ...

 *** WAVEWATCH III WARNING IN W3IORS : 
     NO READABLE RESTART FILE, INITIALIZE WITH 'CALM' INSTEAD
     IOSTAT =   29


 *** WAVEWATCH-III WARNING :
     OUTPUT POINT OUT OF GRID :    -72.100    39.672  a01       
     POINT SKIPPPED 


 *** WAVEWATCH-III WARNING :
     OUTPUT POINT OUT OF GRID :    -72.115    39.719  a02       
     POINT SKIPPPED 


 *** WAVEWATCH-III WARNING :
     OUTPUT POINT OUT OF GRID :    -72.130    39.766  a03       
     POINT SKIPPPED 


 *** WAVEWATCH-III WARNING :
     OUTPUT POINT OUT OF GRID :    -72.145    39.812  a04       
     POINT SKIPPPED 


 *** WAVEWATCH-III WARNING :
     OUTPUT POINT OUT OF GRID :    -72.160    39.859  a05       
     POINT SKIPPPED 


 *** WAVEWATCH-III WARNING :
     OUTPUT POINT OUT OF GRID :    -72.175    39.906  a06       
     POINT SKIPPPED 


 *** WAVEWATCH-III WARNING :
     OUTPUT POINT OUT OF GRID :    -72.190    39.952  a07       
     POINT SKIPPPED 


 *** WAVEWATCH-III WARNING :
     OUTPUT POINT OUT OF GRID :    -72.205    39.999  a08       
     POINT SKIPPPED 


 *** WAVEWATCH-III WARNING :
     OUTPUT POINT OUT OF GRID :    -72.220    40.046  a09       
     POINT SKIPPPED 


 *** WAVEWATCH-III WARNING :
     OUTPUT POINT OUT OF GRID :    -72.235    40.092  a10       
     POINT SKIPPPED 


 *** WAVEWATCH-III WARNING :
     OUTPUT POINT OUT OF GRID :    -72.250    40.139  a11       
     POINT SKIPPPED 


 *** WAVEWATCH-III WARNING :
     OUTPUT POINT OUT OF GRID :    -72.265    40.186  a12       
     POINT SKIPPPED 


 *** WAVEWATCH-III WARNING :
     OUTPUT POINT OUT OF GRID :    -72.280    40.232  a13       
     POINT SKIPPPED 


 *** WAVEWATCH-III WARNING :
     OUTPUT POINT OUT OF GRID :    -72.295    40.279  a14       
     POINT SKIPPPED 


 *** WAVEWATCH-III WARNING :
     OUTPUT POINT OUT OF GRID :    -72.310    40.326  a15       
     POINT SKIPPPED 


 *** WAVEWATCH-III WARNING :
     OUTPUT POINT OUT OF GRID :    -72.325    40.372  a16       
     POINT SKIPPPED 


 *** WAVEWATCH-III WARNING :
     OUTPUT POINT OUT OF GRID :    -72.490    40.885  a27       
     POINT SKIPPPED 


 *** WAVEWATCH-III WARNING :
     OUTPUT POINT OUT OF GRID :    -72.505    40.932  a28       
     POINT SKIPPPED 


 *** WAVEWATCH-III WARNING :
     OUTPUT POINT OUT OF GRID :    -72.520    40.979  a29       
     POINT SKIPPPED 


 *** WAVEWATCH-III WARNING :
     OUTPUT POINT OUT OF GRID :    -72.535    41.025  a30       
     POINT SKIPPPED 


 *** WAVEWATCH-III WARNING :
     OUTPUT POINT OUT OF GRID :    -72.550    41.072  a31       
     POINT SKIPPPED 


 *** WAVEWATCH-III WARNING :
     OUTPUT POINT OUT OF GRID :    -72.565    41.119  a32       
     POINT SKIPPPED 


 *** WAVEWATCH-III WARNING :
     OUTPUT POINT OUT OF GRID :    -72.580    41.165  a33       
     POINT SKIPPPED 


 *** WAVEWATCH-III WARNING :
     OUTPUT POINT OUT OF GRID :    -72.595    41.212  a34       
     POINT SKIPPPED 


 *** WAVEWATCH-III WARNING :
     OUTPUT POINT OUT OF GRID :    -72.610    41.259  a35       
     POINT SKIPPPED 


 *** WAVEWATCH-III WARNING :
     OUTPUT POINT OUT OF GRID :    -72.625    41.305  a36       
     POINT SKIPPPED 


 *** WAVEWATCH-III WARNING :
     OUTPUT POINT OUT OF GRID :    -72.640    41.352  a37       
     POINT SKIPPPED 


 *** WAVEWATCH-III WARNING :
     OUTPUT POINT OUT OF GRID :    -72.655    41.398  a38       
     POINT SKIPPPED 


 *** WAVEWATCH-III WARNING :
     OUTPUT POINT OUT OF GRID :    -72.670    41.445  a39       
     POINT SKIPPPED 


 *** WAVEWATCH-III WARNING :
     OUTPUT POINT OUT OF GRID :    -72.685    41.492  a40       
     POINT SKIPPPED 


 *** WAVEWATCH-III WARNING :
     OUTPUT POINT OUT OF GRID :    -72.700    41.538  a41       
     POINT SKIPPPED 


  Running model with input fields
 --------------------------------------------------

  Updating input at 2008/09/04 12:00:00 UTC
     Updating water levels 
     Updating currents     
     Updating winds        
  
  WAVEWATCH III calculating for 2008/09/04 12:00:00 UTC at 15:48:56
  WAVEWATCH III calculating for 2008/09/04 12:02:30 UTC at 15:48:56
  WAVEWATCH III calculating for 2008/09/04 12:05:00 UTC at 15:48:57
  WAVEWATCH III calculating for 2008/09/04 12:07:30 UTC at 15:48:58
  WAVEWATCH III calculating for 2008/09/04 12:10:00 UTC at 15:48:59
  WAVEWATCH III calculating for 2008/09/04 12:12:30 UTC at 15:49:00
  WAVEWATCH III calculating for 2008/09/04 12:15:00 UTC at 15:49:01
  WAVEWATCH III calculating for 2008/09/04 12:17:30 UTC at 15:49:02
  WAVEWATCH III calculating for 2008/09/04 12:20:00 UTC at 15:49:03
  WAVEWATCH III calculating for 2008/09/04 12:22:30 UTC at 15:49:04
  WAVEWATCH III calculating for 2008/09/04 12:25:00 UTC at 15:49:05
  WAVEWATCH III calculating for 2008/09/04 12:27:30 UTC at 15:49:06
  WAVEWATCH III calculating for 2008/09/04 12:30:00 UTC at 15:49:07
  WAVEWATCH III calculating for 2008/09/04 12:32:30 UTC at 15:49:08
  WAVEWATCH III calculating for 2008/09/04 12:35:00 UTC at 15:49:09
  WAVEWATCH III calculating for 2008/09/04 12:37:30 UTC at 15:49:10
  WAVEWATCH III calculating for 2008/09/04 12:40:00 UTC at 15:49:11
  WAVEWATCH III calculating for 2008/09/04 12:42:30 UTC at 15:49:12
  WAVEWATCH III calculating for 2008/09/04 12:45:00 UTC at 15:49:12
  WAVEWATCH III calculating for 2008/09/04 12:47:30 UTC at 15:49:13
  WAVEWATCH III calculating for 2008/09/04 12:50:00 UTC at 15:49:14
  WAVEWATCH III calculating for 2008/09/04 12:52:30 UTC at 15:49:15
  WAVEWATCH III calculating for 2008/09/04 12:55:00 UTC at 15:49:16
  WAVEWATCH III calculating for 2008/09/04 12:57:30 UTC at 15:49:17
  WAVEWATCH III calculating for 2008/09/04 13:00:00 UTC at 15:49:18
  WAVEWATCH III calculating for 2008/09/04 13:02:30 UTC at 15:49:19
  WAVEWATCH III calculating for 2008/09/04 13:05:00 UTC at 15:49:19
  WAVEWATCH III calculating for 2008/09/04 13:07:30 UTC at 15:49:20
  WAVEWATCH III calculating for 2008/09/04 13:10:00 UTC at 15:49:21
  WAVEWATCH III calculating for 2008/09/04 13:12:30 UTC at 15:49:22
  WAVEWATCH III calculating for 2008/09/04 13:15:00 UTC at 15:49:23
  WAVEWATCH III calculating for 2008/09/04 13:17:30 UTC at 15:49:24
  WAVEWATCH III calculating for 2008/09/04 13:20:00 UTC at 15:49:24
  WAVEWATCH III calculating for 2008/09/04 13:22:30 UTC at 15:49:25
  WAVEWATCH III calculating for 2008/09/04 13:25:00 UTC at 15:49:26
  WAVEWATCH III calculating for 2008/09/04 13:27:30 UTC at 15:49:27
  WAVEWATCH III calculating for 2008/09/04 13:30:00 UTC at 15:49:27
  WAVEWATCH III calculating for 2008/09/04 13:32:30 UTC at 15:49:28
  WAVEWATCH III calculating for 2008/09/04 13:35:00 UTC at 15:49:29
  WAVEWATCH III calculating for 2008/09/04 13:37:30 UTC at 15:49:30
  WAVEWATCH III calculating for 2008/09/04 13:40:00 UTC at 15:49:31
  WAVEWATCH III calculating for 2008/09/04 13:42:30 UTC at 15:49:32
  WAVEWATCH III calculating for 2008/09/04 13:45:00 UTC at 15:49:33
  WAVEWATCH III calculating for 2008/09/04 13:47:30 UTC at 15:49:33
  WAVEWATCH III calculating for 2008/09/04 13:50:00 UTC at 15:49:34
  WAVEWATCH III calculating for 2008/09/04 13:52:30 UTC at 15:49:35
  WAVEWATCH III calculating for 2008/09/04 13:55:00 UTC at 15:49:36
  WAVEWATCH III calculating for 2008/09/04 13:57:30 UTC at 15:49:37
  WAVEWATCH III calculating for 2008/09/04 14:00:00 UTC at 15:49:37
  WAVEWATCH III calculating for 2008/09/04 14:02:30 UTC at 15:49:38
  WAVEWATCH III calculating for 2008/09/04 14:05:00 UTC at 15:49:39
  WAVEWATCH III calculating for 2008/09/04 14:07:30 UTC at 15:49:40
  WAVEWATCH III calculating for 2008/09/04 14:10:00 UTC at 15:49:40
  WAVEWATCH III calculating for 2008/09/04 14:12:30 UTC at 15:49:41
  WAVEWATCH III calculating for 2008/09/04 14:15:00 UTC at 15:49:42
  WAVEWATCH III calculating for 2008/09/04 14:17:30 UTC at 15:49:43
  WAVEWATCH III calculating for 2008/09/04 14:20:00 UTC at 15:49:44
  WAVEWATCH III calculating for 2008/09/04 14:22:30 UTC at 15:49:44
  WAVEWATCH III calculating for 2008/09/04 14:25:00 UTC at 15:49:45
  WAVEWATCH III calculating for 2008/09/04 14:27:30 UTC at 15:49:46
  WAVEWATCH III calculating for 2008/09/04 14:30:00 UTC at 15:49:47
  WAVEWATCH III calculating for 2008/09/04 14:32:30 UTC at 15:49:48
  WAVEWATCH III calculating for 2008/09/04 14:35:00 UTC at 15:49:48
  WAVEWATCH III calculating for 2008/09/04 14:37:30 UTC at 15:49:49
  WAVEWATCH III calculating for 2008/09/04 14:40:00 UTC at 15:49:50
  WAVEWATCH III calculating for 2008/09/04 14:42:30 UTC at 15:49:50
  WAVEWATCH III calculating for 2008/09/04 14:45:00 UTC at 15:49:51
  WAVEWATCH III calculating for 2008/09/04 14:47:30 UTC at 15:49:52
  WAVEWATCH III calculating for 2008/09/04 14:50:00 UTC at 15:49:53
  WAVEWATCH III calculating for 2008/09/04 14:52:30 UTC at 15:49:54
  WAVEWATCH III calculating for 2008/09/04 14:55:00 UTC at 15:49:54
  WAVEWATCH III calculating for 2008/09/04 14:57:30 UTC at 15:49:55
  WAVEWATCH III calculating for 2008/09/04 15:00:00 UTC at 15:49:56
  WAVEWATCH III calculating for 2008/09/04 15:02:30 UTC at 15:49:56
  WAVEWATCH III calculating for 2008/09/04 15:05:00 UTC at 15:49:57
  WAVEWATCH III calculating for 2008/09/04 15:07:30 UTC at 15:49:58
  WAVEWATCH III calculating for 2008/09/04 15:10:00 UTC at 15:49:58
  WAVEWATCH III calculating for 2008/09/04 15:12:30 UTC at 15:49:59
  WAVEWATCH III calculating for 2008/09/04 15:15:00 UTC at 15:50:00
  WAVEWATCH III calculating for 2008/09/04 15:17:30 UTC at 15:50:01
  WAVEWATCH III calculating for 2008/09/04 15:20:00 UTC at 15:50:01
  WAVEWATCH III calculating for 2008/09/04 15:22:30 UTC at 15:50:02
  WAVEWATCH III calculating for 2008/09/04 15:25:00 UTC at 15:50:03
  WAVEWATCH III calculating for 2008/09/04 15:27:30 UTC at 15:50:03
  WAVEWATCH III calculating for 2008/09/04 15:30:00 UTC at 15:50:04
  WAVEWATCH III calculating for 2008/09/04 15:32:30 UTC at 15:50:04
  WAVEWATCH III calculating for 2008/09/04 15:35:00 UTC at 15:50:05
  WAVEWATCH III calculating for 2008/09/04 15:37:30 UTC at 15:50:06
  WAVEWATCH III calculating for 2008/09/04 15:40:00 UTC at 15:50:06
  WAVEWATCH III calculating for 2008/09/04 15:42:30 UTC at 15:50:07
  WAVEWATCH III calculating for 2008/09/04 15:45:00 UTC at 15:50:08
  WAVEWATCH III calculating for 2008/09/04 15:47:30 UTC at 15:50:08
  WAVEWATCH III calculating for 2008/09/04 15:50:00 UTC at 15:50:09
  WAVEWATCH III calculating for 2008/09/04 15:52:30 UTC at 15:50:10
  WAVEWATCH III calculating for 2008/09/04 15:55:00 UTC at 15:50:11
  WAVEWATCH III calculating for 2008/09/04 15:57:30 UTC at 15:50:11
  WAVEWATCH III calculating for 2008/09/04 16:00:00 UTC at 15:50:12
  WAVEWATCH III calculating for 2008/09/04 16:02:30 UTC at 15:50:13
  WAVEWATCH III calculating for 2008/09/04 16:05:00 UTC at 15:50:13
  WAVEWATCH III calculating for 2008/09/04 16:07:30 UTC at 15:50:14
  WAVEWATCH III calculating for 2008/09/04 16:10:00 UTC at 15:50:15
  WAVEWATCH III calculating for 2008/09/04 16:12:30 UTC at 15:50:15
  WAVEWATCH III calculating for 2008/09/04 16:15:00 UTC at 15:50:16
  WAVEWATCH III calculating for 2008/09/04 16:17:30 UTC at 15:50:17
  WAVEWATCH III calculating for 2008/09/04 16:20:00 UTC at 15:50:17
  WAVEWATCH III calculating for 2008/09/04 16:22:30 UTC at 15:50:18
  WAVEWATCH III calculating for 2008/09/04 16:25:00 UTC at 15:50:19
  WAVEWATCH III calculating for 2008/09/04 16:27:30 UTC at 15:50:19
  WAVEWATCH III calculating for 2008/09/04 16:30:00 UTC at 15:50:20
  WAVEWATCH III calculating for 2008/09/04 16:32:30 UTC at 15:50:21
  WAVEWATCH III calculating for 2008/09/04 16:35:00 UTC at 15:50:21
  WAVEWATCH III calculating for 2008/09/04 16:37:30 UTC at 15:50:22
  WAVEWATCH III calculating for 2008/09/04 16:40:00 UTC at 15:50:22
  WAVEWATCH III calculating for 2008/09/04 16:42:30 UTC at 15:50:23
  WAVEWATCH III calculating for 2008/09/04 16:45:00 UTC at 15:50:24
  WAVEWATCH III calculating for 2008/09/04 16:47:30 UTC at 15:50:24
  WAVEWATCH III calculating for 2008/09/04 16:50:00 UTC at 15:50:25
  WAVEWATCH III calculating for 2008/09/04 16:52:30 UTC at 15:50:26
  WAVEWATCH III calculating for 2008/09/04 16:55:00 UTC at 15:50:26
  WAVEWATCH III calculating for 2008/09/04 16:57:30 UTC at 15:50:27
  WAVEWATCH III calculating for 2008/09/04 17:00:00 UTC at 15:50:28
  WAVEWATCH III reached the end of a computation loop at 15:50:28

  Updating input at 2008/09/04 17:00:00 UTC
     Updating winds        
  
  WAVEWATCH III calculating for 2008/09/04 17:02:30 UTC at 15:50:28
  WAVEWATCH III calculating for 2008/09/04 17:05:00 UTC at 15:50:29
  WAVEWATCH III calculating for 2008/09/04 17:07:30 UTC at 15:50:30
  WAVEWATCH III calculating for 2008/09/04 17:10:00 UTC at 15:50:31
  WAVEWATCH III calculating for 2008/09/04 17:12:30 UTC at 15:50:31
  WAVEWATCH III calculating for 2008/09/04 17:15:00 UTC at 15:50:32
  WAVEWATCH III calculating for 2008/09/04 17:17:30 UTC at 15:50:33
  WAVEWATCH III calculating for 2008/09/04 17:20:00 UTC at 15:50:33
  WAVEWATCH III calculating for 2008/09/04 17:22:30 UTC at 15:50:34
  WAVEWATCH III calculating for 2008/09/04 17:25:00 UTC at 15:50:35
  WAVEWATCH III calculating for 2008/09/04 17:27:30 UTC at 15:50:35
  WAVEWATCH III calculating for 2008/09/04 17:30:00 UTC at 15:50:36
  WAVEWATCH III calculating for 2008/09/04 17:32:30 UTC at 15:50:37
  WAVEWATCH III calculating for 2008/09/04 17:35:00 UTC at 15:50:37
  WAVEWATCH III calculating for 2008/09/04 17:37:30 UTC at 15:50:38
  WAVEWATCH III calculating for 2008/09/04 17:40:00 UTC at 15:50:39
  WAVEWATCH III calculating for 2008/09/04 17:42:30 UTC at 15:50:39
  WAVEWATCH III calculating for 2008/09/04 17:45:00 UTC at 15:50:40
  WAVEWATCH III calculating for 2008/09/04 17:47:30 UTC at 15:50:41
  WAVEWATCH III calculating for 2008/09/04 17:50:00 UTC at 15:50:41
  WAVEWATCH III calculating for 2008/09/04 17:52:30 UTC at 15:50:42
  WAVEWATCH III calculating for 2008/09/04 17:55:00 UTC at 15:50:43
  WAVEWATCH III calculating for 2008/09/04 17:57:30 UTC at 15:50:43
  WAVEWATCH III calculating for 2008/09/04 18:00:00 UTC at 15:50:44
  WAVEWATCH III calculating for 2008/09/04 18:02:30 UTC at 15:50:45
  WAVEWATCH III calculating for 2008/09/04 18:05:00 UTC at 15:50:46
  WAVEWATCH III calculating for 2008/09/04 18:07:30 UTC at 15:50:46
  WAVEWATCH III calculating for 2008/09/04 18:10:00 UTC at 15:50:47
  WAVEWATCH III calculating for 2008/09/04 18:12:30 UTC at 15:50:48
  WAVEWATCH III calculating for 2008/09/04 18:15:00 UTC at 15:50:48
  WAVEWATCH III calculating for 2008/09/04 18:17:30 UTC at 15:50:49
  WAVEWATCH III calculating for 2008/09/04 18:20:00 UTC at 15:50:50
  WAVEWATCH III calculating for 2008/09/04 18:22:30 UTC at 15:50:50
  WAVEWATCH III calculating for 2008/09/04 18:25:00 UTC at 15:50:51
  WAVEWATCH III calculating for 2008/09/04 18:27:30 UTC at 15:50:52
  WAVEWATCH III calculating for 2008/09/04 18:30:00 UTC at 15:50:52
  WAVEWATCH III calculating for 2008/09/04 18:32:30 UTC at 15:50:53
  WAVEWATCH III calculating for 2008/09/04 18:35:00 UTC at 15:50:54
  WAVEWATCH III calculating for 2008/09/04 18:37:30 UTC at 15:50:54
  WAVEWATCH III calculating for 2008/09/04 18:40:00 UTC at 15:50:55
  WAVEWATCH III calculating for 2008/09/04 18:42:30 UTC at 15:50:56
  WAVEWATCH III calculating for 2008/09/04 18:45:00 UTC at 15:50:57
  WAVEWATCH III calculating for 2008/09/04 18:47:30 UTC at 15:50:57
  WAVEWATCH III calculating for 2008/09/04 18:50:00 UTC at 15:50:58
  WAVEWATCH III calculating for 2008/09/04 18:52:30 UTC at 15:50:59
  WAVEWATCH III calculating for 2008/09/04 18:55:00 UTC at 15:50:59
  WAVEWATCH III calculating for 2008/09/04 18:57:30 UTC at 15:51:00
  WAVEWATCH III calculating for 2008/09/04 19:00:00 UTC at 15:51:01
  WAVEWATCH III calculating for 2008/09/04 19:02:30 UTC at 15:51:01
  WAVEWATCH III calculating for 2008/09/04 19:05:00 UTC at 15:51:02
  WAVEWATCH III calculating for 2008/09/04 19:07:30 UTC at 15:51:03
  WAVEWATCH III calculating for 2008/09/04 19:10:00 UTC at 15:51:03
  WAVEWATCH III calculating for 2008/09/04 19:12:30 UTC at 15:51:04
  WAVEWATCH III calculating for 2008/09/04 19:15:00 UTC at 15:51:05
  WAVEWATCH III calculating for 2008/09/04 19:17:30 UTC at 15:51:05
  WAVEWATCH III calculating for 2008/09/04 19:20:00 UTC at 15:51:06
  WAVEWATCH III calculating for 2008/09/04 19:22:30 UTC at 15:51:07
  WAVEWATCH III calculating for 2008/09/04 19:25:00 UTC at 15:51:08
  WAVEWATCH III calculating for 2008/09/04 19:27:30 UTC at 15:51:08
  WAVEWATCH III calculating for 2008/09/04 19:30:00 UTC at 15:51:09
  WAVEWATCH III calculating for 2008/09/04 19:32:30 UTC at 15:51:09
  WAVEWATCH III calculating for 2008/09/04 19:35:00 UTC at 15:51:10
  WAVEWATCH III calculating for 2008/09/04 19:37:30 UTC at 15:51:11
  WAVEWATCH III calculating for 2008/09/04 19:40:00 UTC at 15:51:11
  WAVEWATCH III calculating for 2008/09/04 19:42:30 UTC at 15:51:12
  WAVEWATCH III calculating for 2008/09/04 19:45:00 UTC at 15:51:13
  WAVEWATCH III calculating for 2008/09/04 19:47:30 UTC at 15:51:14
  WAVEWATCH III calculating for 2008/09/04 19:50:00 UTC at 15:51:14
  WAVEWATCH III calculating for 2008/09/04 19:52:30 UTC at 15:51:15
  WAVEWATCH III calculating for 2008/09/04 19:55:00 UTC at 15:51:16
  WAVEWATCH III calculating for 2008/09/04 19:57:30 UTC at 15:51:16
  WAVEWATCH III calculating for 2008/09/04 20:00:00 UTC at 15:51:17
  WAVEWATCH III calculating for 2008/09/04 20:02:30 UTC at 15:51:18
  WAVEWATCH III calculating for 2008/09/04 20:05:00 UTC at 15:51:19
  WAVEWATCH III calculating for 2008/09/04 20:07:30 UTC at 15:51:19
  WAVEWATCH III calculating for 2008/09/04 20:10:00 UTC at 15:51:20
  WAVEWATCH III calculating for 2008/09/04 20:12:30 UTC at 15:51:21
  WAVEWATCH III calculating for 2008/09/04 20:15:00 UTC at 15:51:21
  WAVEWATCH III calculating for 2008/09/04 20:17:30 UTC at 15:51:22
  WAVEWATCH III calculating for 2008/09/04 20:20:00 UTC at 15:51:23
  WAVEWATCH III calculating for 2008/09/04 20:22:30 UTC at 15:51:23
  WAVEWATCH III calculating for 2008/09/04 20:25:00 UTC at 15:51:24
  WAVEWATCH III calculating for 2008/09/04 20:27:30 UTC at 15:51:25
  WAVEWATCH III calculating for 2008/09/04 20:30:00 UTC at 15:51:25
  WAVEWATCH III calculating for 2008/09/04 20:32:30 UTC at 15:51:26
  WAVEWATCH III calculating for 2008/09/04 20:35:00 UTC at 15:51:26
  WAVEWATCH III calculating for 2008/09/04 20:37:30 UTC at 15:51:27
  WAVEWATCH III calculating for 2008/09/04 20:40:00 UTC at 15:51:28
  WAVEWATCH III calculating for 2008/09/04 20:42:30 UTC at 15:51:29
  WAVEWATCH III calculating for 2008/09/04 20:45:00 UTC at 15:51:29
  WAVEWATCH III calculating for 2008/09/04 20:47:30 UTC at 15:51:30
  WAVEWATCH III calculating for 2008/09/04 20:50:00 UTC at 15:51:30
  WAVEWATCH III calculating for 2008/09/04 20:52:30 UTC at 15:51:31
  WAVEWATCH III calculating for 2008/09/04 20:55:00 UTC at 15:51:32
  WAVEWATCH III calculating for 2008/09/04 20:57:30 UTC at 15:51:32
  WAVEWATCH III calculating for 2008/09/04 21:00:00 UTC at 15:51:33
  WAVEWATCH III calculating for 2008/09/04 21:02:30 UTC at 15:51:34
  WAVEWATCH III calculating for 2008/09/04 21:05:00 UTC at 15:51:34
  WAVEWATCH III calculating for 2008/09/04 21:07:30 UTC at 15:51:35
  WAVEWATCH III calculating for 2008/09/04 21:10:00 UTC at 15:51:36
  WAVEWATCH III calculating for 2008/09/04 21:12:30 UTC at 15:51:37
  WAVEWATCH III calculating for 2008/09/04 21:15:00 UTC at 15:51:37
  WAVEWATCH III calculating for 2008/09/04 21:17:30 UTC at 15:51:38
  WAVEWATCH III calculating for 2008/09/04 21:20:00 UTC at 15:51:39
  WAVEWATCH III calculating for 2008/09/04 21:22:30 UTC at 15:51:39
  WAVEWATCH III calculating for 2008/09/04 21:25:00 UTC at 15:51:40
  WAVEWATCH III calculating for 2008/09/04 21:27:30 UTC at 15:51:40
  WAVEWATCH III calculating for 2008/09/04 21:30:00 UTC at 15:51:41
  WAVEWATCH III calculating for 2008/09/04 21:32:30 UTC at 15:51:42
  WAVEWATCH III calculating for 2008/09/04 21:35:00 UTC at 15:51:42
  WAVEWATCH III calculating for 2008/09/04 21:37:30 UTC at 15:51:43
  WAVEWATCH III calculating for 2008/09/04 21:40:00 UTC at 15:51:44
  WAVEWATCH III calculating for 2008/09/04 21:42:30 UTC at 15:51:44
  WAVEWATCH III calculating for 2008/09/04 21:45:00 UTC at 15:51:45
  WAVEWATCH III calculating for 2008/09/04 21:47:30 UTC at 15:51:46
  WAVEWATCH III calculating for 2008/09/04 21:50:00 UTC at 15:51:46
  WAVEWATCH III calculating for 2008/09/04 21:52:30 UTC at 15:51:47
  WAVEWATCH III calculating for 2008/09/04 21:55:00 UTC at 15:51:48
  WAVEWATCH III calculating for 2008/09/04 21:57:30 UTC at 15:51:48
  WAVEWATCH III calculating for 2008/09/04 22:00:00 UTC at 15:51:49
  WAVEWATCH III reached the end of a computation loop at 15:51:50

  Updating input at 2008/09/04 22:00:00 UTC
     Updating winds        
  
  WAVEWATCH III calculating for 2008/09/04 22:02:30 UTC at 15:51:50
  WAVEWATCH III calculating for 2008/09/04 22:05:00 UTC at 15:51:50
  WAVEWATCH III calculating for 2008/09/04 22:07:30 UTC at 15:51:51
  WAVEWATCH III calculating for 2008/09/04 22:10:00 UTC at 15:51:52
  WAVEWATCH III calculating for 2008/09/04 22:12:30 UTC at 15:51:53
  WAVEWATCH III calculating for 2008/09/04 22:15:00 UTC at 15:51:53
  WAVEWATCH III calculating for 2008/09/04 22:17:30 UTC at 15:51:54
  WAVEWATCH III calculating for 2008/09/04 22:20:00 UTC at 15:51:55
  WAVEWATCH III calculating for 2008/09/04 22:22:30 UTC at 15:51:55
  WAVEWATCH III calculating for 2008/09/04 22:25:00 UTC at 15:51:56
  WAVEWATCH III calculating for 2008/09/04 22:27:30 UTC at 15:51:57
  WAVEWATCH III calculating for 2008/09/04 22:30:00 UTC at 15:51:57
  WAVEWATCH III calculating for 2008/09/04 22:32:30 UTC at 15:51:58
  WAVEWATCH III calculating for 2008/09/04 22:35:00 UTC at 15:51:59
  WAVEWATCH III calculating for 2008/09/04 22:37:30 UTC at 15:51:59
  WAVEWATCH III calculating for 2008/09/04 22:40:00 UTC at 15:52:00
  WAVEWATCH III calculating for 2008/09/04 22:42:30 UTC at 15:52:01
  WAVEWATCH III calculating for 2008/09/04 22:45:00 UTC at 15:52:02
  WAVEWATCH III calculating for 2008/09/04 22:47:30 UTC at 15:52:02
  WAVEWATCH III calculating for 2008/09/04 22:50:00 UTC at 15:52:03
  WAVEWATCH III calculating for 2008/09/04 22:52:30 UTC at 15:52:04
  WAVEWATCH III calculating for 2008/09/04 22:55:00 UTC at 15:52:04
  WAVEWATCH III calculating for 2008/09/04 22:57:30 UTC at 15:52:05
  WAVEWATCH III calculating for 2008/09/04 23:00:00 UTC at 15:52:06
  WAVEWATCH III calculating for 2008/09/04 23:02:30 UTC at 15:52:06
  WAVEWATCH III calculating for 2008/09/04 23:05:00 UTC at 15:52:07
  WAVEWATCH III calculating for 2008/09/04 23:07:30 UTC at 15:52:08
  WAVEWATCH III calculating for 2008/09/04 23:10:00 UTC at 15:52:09
  WAVEWATCH III calculating for 2008/09/04 23:12:30 UTC at 15:52:10
  WAVEWATCH III calculating for 2008/09/04 23:15:00 UTC at 15:52:10
  WAVEWATCH III calculating for 2008/09/04 23:17:30 UTC at 15:52:11
  WAVEWATCH III calculating for 2008/09/04 23:20:00 UTC at 15:52:12
  WAVEWATCH III calculating for 2008/09/04 23:22:30 UTC at 15:52:12
  WAVEWATCH III calculating for 2008/09/04 23:25:00 UTC at 15:52:13
  WAVEWATCH III calculating for 2008/09/04 23:27:30 UTC at 15:52:14
  WAVEWATCH III calculating for 2008/09/04 23:30:00 UTC at 15:52:15
  WAVEWATCH III calculating for 2008/09/04 23:32:30 UTC at 15:52:15
  WAVEWATCH III calculating for 2008/09/04 23:35:00 UTC at 15:52:16
  WAVEWATCH III calculating for 2008/09/04 23:37:30 UTC at 15:52:17
  WAVEWATCH III calculating for 2008/09/04 23:40:00 UTC at 15:52:18
  WAVEWATCH III calculating for 2008/09/04 23:42:30 UTC at 15:52:18
  WAVEWATCH III calculating for 2008/09/04 23:45:00 UTC at 15:52:19
  WAVEWATCH III calculating for 2008/09/04 23:47:30 UTC at 15:52:20
  WAVEWATCH III calculating for 2008/09/04 23:50:00 UTC at 15:52:20
  WAVEWATCH III calculating for 2008/09/04 23:52:30 UTC at 15:52:21
  WAVEWATCH III calculating for 2008/09/04 23:55:00 UTC at 15:52:22
  WAVEWATCH III calculating for 2008/09/04 23:57:30 UTC at 15:52:23
  WAVEWATCH III calculating for 2008/09/05 00:00:00 UTC at 15:52:23
  WAVEWATCH III calculating for 2008/09/05 00:02:30 UTC at 15:52:24
  WAVEWATCH III calculating for 2008/09/05 00:05:00 UTC at 15:52:25
  WAVEWATCH III calculating for 2008/09/05 00:07:30 UTC at 15:52:26
  WAVEWATCH III calculating for 2008/09/05 00:10:00 UTC at 15:52:26
  WAVEWATCH III calculating for 2008/09/05 00:12:30 UTC at 15:52:27
  WAVEWATCH III calculating for 2008/09/05 00:15:00 UTC at 15:52:28
  WAVEWATCH III calculating for 2008/09/05 00:17:30 UTC at 15:52:28
  WAVEWATCH III calculating for 2008/09/05 00:20:00 UTC at 15:52:29
  WAVEWATCH III calculating for 2008/09/05 00:22:30 UTC at 15:52:30
  WAVEWATCH III calculating for 2008/09/05 00:25:00 UTC at 15:52:31
  WAVEWATCH III calculating for 2008/09/05 00:27:30 UTC at 15:52:31
  WAVEWATCH III calculating for 2008/09/05 00:30:00 UTC at 15:52:32
  WAVEWATCH III calculating for 2008/09/05 00:32:30 UTC at 15:52:33
  WAVEWATCH III calculating for 2008/09/05 00:35:00 UTC at 15:52:34
  WAVEWATCH III calculating for 2008/09/05 00:37:30 UTC at 15:52:34
  WAVEWATCH III calculating for 2008/09/05 00:40:00 UTC at 15:52:35
  WAVEWATCH III calculating for 2008/09/05 00:42:30 UTC at 15:52:35
  WAVEWATCH III calculating for 2008/09/05 00:45:00 UTC at 15:52:36
  WAVEWATCH III calculating for 2008/09/05 00:47:30 UTC at 15:52:37
  WAVEWATCH III calculating for 2008/09/05 00:50:00 UTC at 15:52:38
  WAVEWATCH III calculating for 2008/09/05 00:52:30 UTC at 15:52:38
  WAVEWATCH III calculating for 2008/09/05 00:55:00 UTC at 15:52:39
  WAVEWATCH III calculating for 2008/09/05 00:57:30 UTC at 15:52:40
  WAVEWATCH III calculating for 2008/09/05 01:00:00 UTC at 15:52:40
  WAVEWATCH III calculating for 2008/09/05 01:02:30 UTC at 15:52:41
  WAVEWATCH III calculating for 2008/09/05 01:05:00 UTC at 15:52:42
  WAVEWATCH III calculating for 2008/09/05 01:07:30 UTC at 15:52:42
  WAVEWATCH III calculating for 2008/09/05 01:10:00 UTC at 15:52:43
  WAVEWATCH III calculating for 2008/09/05 01:12:30 UTC at 15:52:44
  WAVEWATCH III calculating for 2008/09/05 01:15:00 UTC at 15:52:45
  WAVEWATCH III calculating for 2008/09/05 01:17:30 UTC at 15:52:45
  WAVEWATCH III calculating for 2008/09/05 01:20:00 UTC at 15:52:46
  WAVEWATCH III calculating for 2008/09/05 01:22:30 UTC at 15:52:47
  WAVEWATCH III calculating for 2008/09/05 01:25:00 UTC at 15:52:48
  WAVEWATCH III calculating for 2008/09/05 01:27:30 UTC at 15:52:48
  WAVEWATCH III calculating for 2008/09/05 01:30:00 UTC at 15:52:49
  WAVEWATCH III calculating for 2008/09/05 01:32:30 UTC at 15:52:50
  WAVEWATCH III calculating for 2008/09/05 01:35:00 UTC at 15:52:50
  WAVEWATCH III calculating for 2008/09/05 01:37:30 UTC at 15:52:51
  WAVEWATCH III calculating for 2008/09/05 01:40:00 UTC at 15:52:52
  WAVEWATCH III calculating for 2008/09/05 01:42:30 UTC at 15:52:53
  WAVEWATCH III calculating for 2008/09/05 01:45:00 UTC at 15:52:53
  WAVEWATCH III calculating for 2008/09/05 01:47:30 UTC at 15:52:54
  WAVEWATCH III calculating for 2008/09/05 01:50:00 UTC at 15:52:55
  WAVEWATCH III calculating for 2008/09/05 01:52:30 UTC at 15:52:55
  WAVEWATCH III calculating for 2008/09/05 01:55:00 UTC at 15:52:56
  WAVEWATCH III calculating for 2008/09/05 01:57:30 UTC at 15:52:57
  WAVEWATCH III calculating for 2008/09/05 02:00:00 UTC at 15:52:57
  WAVEWATCH III calculating for 2008/09/05 02:02:30 UTC at 15:52:58
  WAVEWATCH III calculating for 2008/09/05 02:05:00 UTC at 15:52:59
  WAVEWATCH III calculating for 2008/09/05 02:07:30 UTC at 15:52:59
  WAVEWATCH III calculating for 2008/09/05 02:10:00 UTC at 15:53:00
  WAVEWATCH III calculating for 2008/09/05 02:12:30 UTC at 15:53:01
  WAVEWATCH III calculating for 2008/09/05 02:15:00 UTC at 15:53:01
  WAVEWATCH III calculating for 2008/09/05 02:17:30 UTC at 15:53:02
  WAVEWATCH III calculating for 2008/09/05 02:20:00 UTC at 15:53:03
  WAVEWATCH III calculating for 2008/09/05 02:22:30 UTC at 15:53:03
  WAVEWATCH III calculating for 2008/09/05 02:25:00 UTC at 15:53:04
  WAVEWATCH III calculating for 2008/09/05 02:27:30 UTC at 15:53:05
  WAVEWATCH III calculating for 2008/09/05 02:30:00 UTC at 15:53:06
  WAVEWATCH III calculating for 2008/09/05 02:32:30 UTC at 15:53:06
  WAVEWATCH III calculating for 2008/09/05 02:35:00 UTC at 15:53:07
  WAVEWATCH III calculating for 2008/09/05 02:37:30 UTC at 15:53:08
  WAVEWATCH III calculating for 2008/09/05 02:40:00 UTC at 15:53:08
  WAVEWATCH III calculating for 2008/09/05 02:42:30 UTC at 15:53:09
  WAVEWATCH III calculating for 2008/09/05 02:45:00 UTC at 15:53:10
  WAVEWATCH III calculating for 2008/09/05 02:47:30 UTC at 15:53:11
  WAVEWATCH III calculating for 2008/09/05 02:50:00 UTC at 15:53:11
  WAVEWATCH III calculating for 2008/09/05 02:52:30 UTC at 15:53:12
  WAVEWATCH III calculating for 2008/09/05 02:55:00 UTC at 15:53:13
  WAVEWATCH III calculating for 2008/09/05 02:57:30 UTC at 15:53:13
  WAVEWATCH III calculating for 2008/09/05 03:00:00 UTC at 15:53:14
  WAVEWATCH III reached the end of a computation loop at 15:53:15

  Updating input at 2008/09/05 03:00:00 UTC
     Updating winds        
  
  WAVEWATCH III calculating for 2008/09/05 03:02:30 UTC at 15:53:15
  WAVEWATCH III calculating for 2008/09/05 03:05:00 UTC at 15:53:16
  WAVEWATCH III calculating for 2008/09/05 03:07:30 UTC at 15:53:16
  WAVEWATCH III calculating for 2008/09/05 03:10:00 UTC at 15:53:17
  WAVEWATCH III calculating for 2008/09/05 03:12:30 UTC at 15:53:18
  WAVEWATCH III calculating for 2008/09/05 03:15:00 UTC at 15:53:18
  WAVEWATCH III calculating for 2008/09/05 03:17:30 UTC at 15:53:19
  WAVEWATCH III calculating for 2008/09/05 03:20:00 UTC at 15:53:20
  WAVEWATCH III calculating for 2008/09/05 03:22:30 UTC at 15:53:20
  WAVEWATCH III calculating for 2008/09/05 03:25:00 UTC at 15:53:21
  WAVEWATCH III calculating for 2008/09/05 03:27:30 UTC at 15:53:22
  WAVEWATCH III calculating for 2008/09/05 03:30:00 UTC at 15:53:23
  WAVEWATCH III calculating for 2008/09/05 03:32:30 UTC at 15:53:23
  WAVEWATCH III calculating for 2008/09/05 03:35:00 UTC at 15:53:24
  WAVEWATCH III calculating for 2008/09/05 03:37:30 UTC at 15:53:25
  WAVEWATCH III calculating for 2008/09/05 03:40:00 UTC at 15:53:26
  WAVEWATCH III calculating for 2008/09/05 03:42:30 UTC at 15:53:26
  WAVEWATCH III calculating for 2008/09/05 03:45:00 UTC at 15:53:27
  WAVEWATCH III calculating for 2008/09/05 03:47:30 UTC at 15:53:28
  WAVEWATCH III calculating for 2008/09/05 03:50:00 UTC at 15:53:28
  WAVEWATCH III calculating for 2008/09/05 03:52:30 UTC at 15:53:29
  WAVEWATCH III calculating for 2008/09/05 03:55:00 UTC at 15:53:30
  WAVEWATCH III calculating for 2008/09/05 03:57:30 UTC at 15:53:31
  WAVEWATCH III calculating for 2008/09/05 04:00:00 UTC at 15:53:31
  WAVEWATCH III calculating for 2008/09/05 04:02:30 UTC at 15:53:32
  WAVEWATCH III calculating for 2008/09/05 04:05:00 UTC at 15:53:33
  WAVEWATCH III calculating for 2008/09/05 04:07:30 UTC at 15:53:34
  WAVEWATCH III calculating for 2008/09/05 04:10:00 UTC at 15:53:34
  WAVEWATCH III calculating for 2008/09/05 04:12:30 UTC at 15:53:35
  WAVEWATCH III calculating for 2008/09/05 04:15:00 UTC at 15:53:36
  WAVEWATCH III calculating for 2008/09/05 04:17:30 UTC at 15:53:37
  WAVEWATCH III calculating for 2008/09/05 04:20:00 UTC at 15:53:37
  WAVEWATCH III calculating for 2008/09/05 04:22:30 UTC at 15:53:38
  WAVEWATCH III calculating for 2008/09/05 04:25:00 UTC at 15:53:39
  WAVEWATCH III calculating for 2008/09/05 04:27:30 UTC at 15:53:39
  WAVEWATCH III calculating for 2008/09/05 04:30:00 UTC at 15:53:40
  WAVEWATCH III calculating for 2008/09/05 04:32:30 UTC at 15:53:41
  WAVEWATCH III calculating for 2008/09/05 04:35:00 UTC at 15:53:42
  WAVEWATCH III calculating for 2008/09/05 04:37:30 UTC at 15:53:42
  WAVEWATCH III calculating for 2008/09/05 04:40:00 UTC at 15:53:43
  WAVEWATCH III calculating for 2008/09/05 04:42:30 UTC at 15:53:44
  WAVEWATCH III calculating for 2008/09/05 04:45:00 UTC at 15:53:44
  WAVEWATCH III calculating for 2008/09/05 04:47:30 UTC at 15:53:45
  WAVEWATCH III calculating for 2008/09/05 04:50:00 UTC at 15:53:46
  WAVEWATCH III calculating for 2008/09/05 04:52:30 UTC at 15:53:46
  WAVEWATCH III calculating for 2008/09/05 04:55:00 UTC at 15:53:47
  WAVEWATCH III calculating for 2008/09/05 04:57:30 UTC at 15:53:48
  WAVEWATCH III calculating for 2008/09/05 05:00:00 UTC at 15:53:49
  WAVEWATCH III calculating for 2008/09/05 05:02:30 UTC at 15:53:50
  WAVEWATCH III calculating for 2008/09/05 05:05:00 UTC at 15:53:50
  WAVEWATCH III calculating for 2008/09/05 05:07:30 UTC at 15:53:51
  WAVEWATCH III calculating for 2008/09/05 05:10:00 UTC at 15:53:52
  WAVEWATCH III calculating for 2008/09/05 05:12:30 UTC at 15:53:52
  WAVEWATCH III calculating for 2008/09/05 05:15:00 UTC at 15:53:53
  WAVEWATCH III calculating for 2008/09/05 05:17:30 UTC at 15:53:54
  WAVEWATCH III calculating for 2008/09/05 05:20:00 UTC at 15:53:55
  WAVEWATCH III calculating for 2008/09/05 05:22:30 UTC at 15:53:55
  WAVEWATCH III calculating for 2008/09/05 05:25:00 UTC at 15:53:56
  WAVEWATCH III calculating for 2008/09/05 05:27:30 UTC at 15:53:57
  WAVEWATCH III calculating for 2008/09/05 05:30:00 UTC at 15:53:58
  WAVEWATCH III calculating for 2008/09/05 05:32:30 UTC at 15:53:58
  WAVEWATCH III calculating for 2008/09/05 05:35:00 UTC at 15:53:59
  WAVEWATCH III calculating for 2008/09/05 05:37:30 UTC at 15:54:00
  WAVEWATCH III calculating for 2008/09/05 05:40:00 UTC at 15:54:00
  WAVEWATCH III calculating for 2008/09/05 05:42:30 UTC at 15:54:01
  WAVEWATCH III calculating for 2008/09/05 05:45:00 UTC at 15:54:02
  WAVEWATCH III calculating for 2008/09/05 05:47:30 UTC at 15:54:03
  WAVEWATCH III calculating for 2008/09/05 05:50:00 UTC at 15:54:03
  WAVEWATCH III calculating for 2008/09/05 05:52:30 UTC at 15:54:04
  WAVEWATCH III calculating for 2008/09/05 05:55:00 UTC at 15:54:05
  WAVEWATCH III calculating for 2008/09/05 05:57:30 UTC at 15:54:06
  WAVEWATCH III calculating for 2008/09/05 06:00:00 UTC at 15:54:06
  WAVEWATCH III calculating for 2008/09/05 06:02:30 UTC at 15:54:07
  WAVEWATCH III calculating for 2008/09/05 06:05:00 UTC at 15:54:08
  WAVEWATCH III calculating for 2008/09/05 06:07:30 UTC at 15:54:09
  WAVEWATCH III calculating for 2008/09/05 06:10:00 UTC at 15:54:09
  WAVEWATCH III calculating for 2008/09/05 06:12:30 UTC at 15:54:10
  WAVEWATCH III calculating for 2008/09/05 06:15:00 UTC at 15:54:11
  WAVEWATCH III calculating for 2008/09/05 06:17:30 UTC at 15:54:12
  WAVEWATCH III calculating for 2008/09/05 06:20:00 UTC at 15:54:12
  WAVEWATCH III calculating for 2008/09/05 06:22:30 UTC at 15:54:13
  WAVEWATCH III calculating for 2008/09/05 06:25:00 UTC at 15:54:14
  WAVEWATCH III calculating for 2008/09/05 06:27:30 UTC at 15:54:14
  WAVEWATCH III calculating for 2008/09/05 06:30:00 UTC at 15:54:15
  WAVEWATCH III calculating for 2008/09/05 06:32:30 UTC at 15:54:16
  WAVEWATCH III calculating for 2008/09/05 06:35:00 UTC at 15:54:16
  WAVEWATCH III calculating for 2008/09/05 06:37:30 UTC at 15:54:17
  WAVEWATCH III calculating for 2008/09/05 06:40:00 UTC at 15:54:18
  WAVEWATCH III calculating for 2008/09/05 06:42:30 UTC at 15:54:18
  WAVEWATCH III calculating for 2008/09/05 06:45:00 UTC at 15:54:19
  WAVEWATCH III calculating for 2008/09/05 06:47:30 UTC at 15:54:20
  WAVEWATCH III calculating for 2008/09/05 06:50:00 UTC at 15:54:21
  WAVEWATCH III calculating for 2008/09/05 06:52:30 UTC at 15:54:21
  WAVEWATCH III calculating for 2008/09/05 06:55:00 UTC at 15:54:22
  WAVEWATCH III calculating for 2008/09/05 06:57:30 UTC at 15:54:23
  WAVEWATCH III calculating for 2008/09/05 07:00:00 UTC at 15:54:24
  WAVEWATCH III calculating for 2008/09/05 07:02:30 UTC at 15:54:25
  WAVEWATCH III calculating for 2008/09/05 07:05:00 UTC at 15:54:25
  WAVEWATCH III calculating for 2008/09/05 07:07:30 UTC at 15:54:26
  WAVEWATCH III calculating for 2008/09/05 07:10:00 UTC at 15:54:27
  WAVEWATCH III calculating for 2008/09/05 07:12:30 UTC at 15:54:28
  WAVEWATCH III calculating for 2008/09/05 07:15:00 UTC at 15:54:28
  WAVEWATCH III calculating for 2008/09/05 07:17:30 UTC at 15:54:29
  WAVEWATCH III calculating for 2008/09/05 07:20:00 UTC at 15:54:30
  WAVEWATCH III calculating for 2008/09/05 07:22:30 UTC at 15:54:31
  WAVEWATCH III calculating for 2008/09/05 07:25:00 UTC at 15:54:31
  WAVEWATCH III calculating for 2008/09/05 07:27:30 UTC at 15:54:32
  WAVEWATCH III calculating for 2008/09/05 07:30:00 UTC at 15:54:33
  WAVEWATCH III calculating for 2008/09/05 07:32:30 UTC at 15:54:33
  WAVEWATCH III calculating for 2008/09/05 07:35:00 UTC at 15:54:34
  WAVEWATCH III calculating for 2008/09/05 07:37:30 UTC at 15:54:35
  WAVEWATCH III calculating for 2008/09/05 07:40:00 UTC at 15:54:36
  WAVEWATCH III calculating for 2008/09/05 07:42:30 UTC at 15:54:37
  WAVEWATCH III calculating for 2008/09/05 07:45:00 UTC at 15:54:37
  WAVEWATCH III calculating for 2008/09/05 07:47:30 UTC at 15:54:38
  WAVEWATCH III calculating for 2008/09/05 07:50:00 UTC at 15:54:39
  WAVEWATCH III calculating for 2008/09/05 07:52:30 UTC at 15:54:39
  WAVEWATCH III calculating for 2008/09/05 07:55:00 UTC at 15:54:40
  WAVEWATCH III calculating for 2008/09/05 07:57:30 UTC at 15:54:41
  WAVEWATCH III calculating for 2008/09/05 08:00:00 UTC at 15:54:41
  WAVEWATCH III reached the end of a computation loop at 15:54:42

  Updating input at 2008/09/05 08:00:00 UTC
     Updating winds        
  
  WAVEWATCH III calculating for 2008/09/05 08:02:30 UTC at 15:54:42
  WAVEWATCH III calculating for 2008/09/05 08:05:00 UTC at 15:54:43
  WAVEWATCH III calculating for 2008/09/05 08:07:30 UTC at 15:54:44
  WAVEWATCH III calculating for 2008/09/05 08:10:00 UTC at 15:54:45
  WAVEWATCH III calculating for 2008/09/05 08:12:30 UTC at 15:54:45
  WAVEWATCH III calculating for 2008/09/05 08:15:00 UTC at 15:54:46
  WAVEWATCH III calculating for 2008/09/05 08:17:30 UTC at 15:54:47
  WAVEWATCH III calculating for 2008/09/05 08:20:00 UTC at 15:54:47
  WAVEWATCH III calculating for 2008/09/05 08:22:30 UTC at 15:54:48
  WAVEWATCH III calculating for 2008/09/05 08:25:00 UTC at 15:54:49
  WAVEWATCH III calculating for 2008/09/05 08:27:30 UTC at 15:54:50
  WAVEWATCH III calculating for 2008/09/05 08:30:00 UTC at 15:54:50
  WAVEWATCH III calculating for 2008/09/05 08:32:30 UTC at 15:54:51
  WAVEWATCH III calculating for 2008/09/05 08:35:00 UTC at 15:54:52
  WAVEWATCH III calculating for 2008/09/05 08:37:30 UTC at 15:54:53
  WAVEWATCH III calculating for 2008/09/05 08:40:00 UTC at 15:54:54
  WAVEWATCH III calculating for 2008/09/05 08:42:30 UTC at 15:54:54
  WAVEWATCH III calculating for 2008/09/05 08:45:00 UTC at 15:54:55
  WAVEWATCH III calculating for 2008/09/05 08:47:30 UTC at 15:54:56
  WAVEWATCH III calculating for 2008/09/05 08:50:00 UTC at 15:54:56
  WAVEWATCH III calculating for 2008/09/05 08:52:30 UTC at 15:54:57
  WAVEWATCH III calculating for 2008/09/05 08:55:00 UTC at 15:54:58
  WAVEWATCH III calculating for 2008/09/05 08:57:30 UTC at 15:54:59
  WAVEWATCH III calculating for 2008/09/05 09:00:00 UTC at 15:54:59
  WAVEWATCH III calculating for 2008/09/05 09:02:30 UTC at 15:55:00
  WAVEWATCH III calculating for 2008/09/05 09:05:00 UTC at 15:55:01
  WAVEWATCH III calculating for 2008/09/05 09:07:30 UTC at 15:55:02
  WAVEWATCH III calculating for 2008/09/05 09:10:00 UTC at 15:55:02
  WAVEWATCH III calculating for 2008/09/05 09:12:30 UTC at 15:55:03
  WAVEWATCH III calculating for 2008/09/05 09:15:00 UTC at 15:55:04
  WAVEWATCH III calculating for 2008/09/05 09:17:30 UTC at 15:55:04
  WAVEWATCH III calculating for 2008/09/05 09:20:00 UTC at 15:55:05
  WAVEWATCH III calculating for 2008/09/05 09:22:30 UTC at 15:55:06
  WAVEWATCH III calculating for 2008/09/05 09:25:00 UTC at 15:55:07
  WAVEWATCH III calculating for 2008/09/05 09:27:30 UTC at 15:55:07
  WAVEWATCH III calculating for 2008/09/05 09:30:00 UTC at 15:55:08
  WAVEWATCH III calculating for 2008/09/05 09:32:30 UTC at 15:55:09
  WAVEWATCH III calculating for 2008/09/05 09:35:00 UTC at 15:55:09
  WAVEWATCH III calculating for 2008/09/05 09:37:30 UTC at 15:55:10
  WAVEWATCH III calculating for 2008/09/05 09:40:00 UTC at 15:55:11
  WAVEWATCH III calculating for 2008/09/05 09:42:30 UTC at 15:55:12
  WAVEWATCH III calculating for 2008/09/05 09:45:00 UTC at 15:55:12
  WAVEWATCH III calculating for 2008/09/05 09:47:30 UTC at 15:55:13
  WAVEWATCH III calculating for 2008/09/05 09:50:00 UTC at 15:55:14
  WAVEWATCH III calculating for 2008/09/05 09:52:30 UTC at 15:55:15
  WAVEWATCH III calculating for 2008/09/05 09:55:00 UTC at 15:55:15
  WAVEWATCH III calculating for 2008/09/05 09:57:30 UTC at 15:55:16
  WAVEWATCH III calculating for 2008/09/05 10:00:00 UTC at 15:55:17
  WAVEWATCH III calculating for 2008/09/05 10:02:30 UTC at 15:55:18
  WAVEWATCH III calculating for 2008/09/05 10:05:00 UTC at 15:55:18
  WAVEWATCH III calculating for 2008/09/05 10:07:30 UTC at 15:55:19
  WAVEWATCH III calculating for 2008/09/05 10:10:00 UTC at 15:55:20
  WAVEWATCH III calculating for 2008/09/05 10:12:30 UTC at 15:55:21
  WAVEWATCH III calculating for 2008/09/05 10:15:00 UTC at 15:55:22
  WAVEWATCH III calculating for 2008/09/05 10:17:30 UTC at 15:55:22
  WAVEWATCH III calculating for 2008/09/05 10:20:00 UTC at 15:55:23
  WAVEWATCH III calculating for 2008/09/05 10:22:30 UTC at 15:55:24
  WAVEWATCH III calculating for 2008/09/05 10:25:00 UTC at 15:55:24
  WAVEWATCH III calculating for 2008/09/05 10:27:30 UTC at 15:55:25
  WAVEWATCH III calculating for 2008/09/05 10:30:00 UTC at 15:55:26
  WAVEWATCH III calculating for 2008/09/05 10:32:30 UTC at 15:55:27
  WAVEWATCH III calculating for 2008/09/05 10:35:00 UTC at 15:55:27
  WAVEWATCH III calculating for 2008/09/05 10:37:30 UTC at 15:55:28
  WAVEWATCH III calculating for 2008/09/05 10:40:00 UTC at 15:55:29
  WAVEWATCH III calculating for 2008/09/05 10:42:30 UTC at 15:55:30
  WAVEWATCH III calculating for 2008/09/05 10:45:00 UTC at 15:55:30
  WAVEWATCH III calculating for 2008/09/05 10:47:30 UTC at 15:55:31
  WAVEWATCH III calculating for 2008/09/05 10:50:00 UTC at 15:55:32
  WAVEWATCH III calculating for 2008/09/05 10:52:30 UTC at 15:55:32
  WAVEWATCH III calculating for 2008/09/05 10:55:00 UTC at 15:55:33
  WAVEWATCH III calculating for 2008/09/05 10:57:30 UTC at 15:55:34
  WAVEWATCH III calculating for 2008/09/05 11:00:00 UTC at 15:55:34
  WAVEWATCH III calculating for 2008/09/05 11:02:30 UTC at 15:55:35
  WAVEWATCH III calculating for 2008/09/05 11:05:00 UTC at 15:55:36
  WAVEWATCH III calculating for 2008/09/05 11:07:30 UTC at 15:55:36
  WAVEWATCH III calculating for 2008/09/05 11:10:00 UTC at 15:55:37
  WAVEWATCH III calculating for 2008/09/05 11:12:30 UTC at 15:55:38
  WAVEWATCH III calculating for 2008/09/05 11:15:00 UTC at 15:55:39
  WAVEWATCH III calculating for 2008/09/05 11:17:30 UTC at 15:55:40
  WAVEWATCH III calculating for 2008/09/05 11:20:00 UTC at 15:55:40
  WAVEWATCH III calculating for 2008/09/05 11:22:30 UTC at 15:55:41
  WAVEWATCH III calculating for 2008/09/05 11:25:00 UTC at 15:55:42
  WAVEWATCH III calculating for 2008/09/05 11:27:30 UTC at 15:55:43
  WAVEWATCH III calculating for 2008/09/05 11:30:00 UTC at 15:55:43
  WAVEWATCH III calculating for 2008/09/05 11:32:30 UTC at 15:55:44
  WAVEWATCH III calculating for 2008/09/05 11:35:00 UTC at 15:55:45
  WAVEWATCH III calculating for 2008/09/05 11:37:30 UTC at 15:55:46
  WAVEWATCH III calculating for 2008/09/05 11:40:00 UTC at 15:55:46
  WAVEWATCH III calculating for 2008/09/05 11:42:30 UTC at 15:55:47
  WAVEWATCH III calculating for 2008/09/05 11:45:00 UTC at 15:55:48
  WAVEWATCH III calculating for 2008/09/05 11:47:30 UTC at 15:55:49
  WAVEWATCH III calculating for 2008/09/05 11:50:00 UTC at 15:55:49
  WAVEWATCH III calculating for 2008/09/05 11:52:30 UTC at 15:55:50
  WAVEWATCH III calculating for 2008/09/05 11:55:00 UTC at 15:55:51
  WAVEWATCH III calculating for 2008/09/05 11:57:30 UTC at 15:55:52
  WAVEWATCH III calculating for 2008/09/05 12:00:00 UTC at 15:55:52
  WAVEWATCH III calculating for 2008/09/05 12:02:30 UTC at 15:55:53
  WAVEWATCH III calculating for 2008/09/05 12:05:00 UTC at 15:55:54
  WAVEWATCH III calculating for 2008/09/05 12:07:30 UTC at 15:55:55
  WAVEWATCH III calculating for 2008/09/05 12:10:00 UTC at 15:55:55
  WAVEWATCH III calculating for 2008/09/05 12:12:30 UTC at 15:55:56
  WAVEWATCH III calculating for 2008/09/05 12:15:00 UTC at 15:55:57
  WAVEWATCH III calculating for 2008/09/05 12:17:30 UTC at 15:55:57
  WAVEWATCH III calculating for 2008/09/05 12:20:00 UTC at 15:55:58
  WAVEWATCH III calculating for 2008/09/05 12:22:30 UTC at 15:55:59
  WAVEWATCH III calculating for 2008/09/05 12:25:00 UTC at 15:56:00
  WAVEWATCH III calculating for 2008/09/05 12:27:30 UTC at 15:56:01
  WAVEWATCH III calculating for 2008/09/05 12:30:00 UTC at 15:56:01
  WAVEWATCH III calculating for 2008/09/05 12:32:30 UTC at 15:56:02
  WAVEWATCH III calculating for 2008/09/05 12:35:00 UTC at 15:56:03
  WAVEWATCH III calculating for 2008/09/05 12:37:30 UTC at 15:56:03
  WAVEWATCH III calculating for 2008/09/05 12:40:00 UTC at 15:56:04
  WAVEWATCH III calculating for 2008/09/05 12:42:30 UTC at 15:56:05
  WAVEWATCH III calculating for 2008/09/05 12:45:00 UTC at 15:56:06
  WAVEWATCH III calculating for 2008/09/05 12:47:30 UTC at 15:56:07
  WAVEWATCH III calculating for 2008/09/05 12:50:00 UTC at 15:56:07
  WAVEWATCH III calculating for 2008/09/05 12:52:30 UTC at 15:56:08
  WAVEWATCH III calculating for 2008/09/05 12:55:00 UTC at 15:56:09
  WAVEWATCH III calculating for 2008/09/05 12:57:30 UTC at 15:56:09
  WAVEWATCH III calculating for 2008/09/05 13:00:00 UTC at 15:56:10
  WAVEWATCH III reached the end of a computation loop at 15:56:11

  Updating input at 2008/09/05 13:00:00 UTC
     Updating winds        
  
  WAVEWATCH III calculating for 2008/09/05 13:02:30 UTC at 15:56:11
  WAVEWATCH III calculating for 2008/09/05 13:05:00 UTC at 15:56:12
  WAVEWATCH III calculating for 2008/09/05 13:07:30 UTC at 15:56:13
  WAVEWATCH III calculating for 2008/09/05 13:10:00 UTC at 15:56:13
  WAVEWATCH III calculating for 2008/09/05 13:12:30 UTC at 15:56:14
  WAVEWATCH III calculating for 2008/09/05 13:15:00 UTC at 15:56:15
  WAVEWATCH III calculating for 2008/09/05 13:17:30 UTC at 15:56:16
  WAVEWATCH III calculating for 2008/09/05 13:20:00 UTC at 15:56:16
  WAVEWATCH III calculating for 2008/09/05 13:22:30 UTC at 15:56:17
  WAVEWATCH III calculating for 2008/09/05 13:25:00 UTC at 15:56:18
  WAVEWATCH III calculating for 2008/09/05 13:27:30 UTC at 15:56:19
  WAVEWATCH III calculating for 2008/09/05 13:30:00 UTC at 15:56:20
  WAVEWATCH III calculating for 2008/09/05 13:32:30 UTC at 15:56:20
  WAVEWATCH III calculating for 2008/09/05 13:35:00 UTC at 15:56:21
  WAVEWATCH III calculating for 2008/09/05 13:37:30 UTC at 15:56:22
  WAVEWATCH III calculating for 2008/09/05 13:40:00 UTC at 15:56:23
  WAVEWATCH III calculating for 2008/09/05 13:42:30 UTC at 15:56:23
  WAVEWATCH III calculating for 2008/09/05 13:45:00 UTC at 15:56:24
  WAVEWATCH III calculating for 2008/09/05 13:47:30 UTC at 15:56:25
  WAVEWATCH III calculating for 2008/09/05 13:50:00 UTC at 15:56:26
  WAVEWATCH III calculating for 2008/09/05 13:52:30 UTC at 15:56:26
  WAVEWATCH III calculating for 2008/09/05 13:55:00 UTC at 15:56:27
  WAVEWATCH III calculating for 2008/09/05 13:57:30 UTC at 15:56:28
  WAVEWATCH III calculating for 2008/09/05 14:00:00 UTC at 15:56:29
  WAVEWATCH III calculating for 2008/09/05 14:02:30 UTC at 15:56:29
  WAVEWATCH III calculating for 2008/09/05 14:05:00 UTC at 15:56:30
  WAVEWATCH III calculating for 2008/09/05 14:07:30 UTC at 15:56:31
  WAVEWATCH III calculating for 2008/09/05 14:10:00 UTC at 15:56:32
  WAVEWATCH III calculating for 2008/09/05 14:12:30 UTC at 15:56:33
  WAVEWATCH III calculating for 2008/09/05 14:15:00 UTC at 15:56:33
  WAVEWATCH III calculating for 2008/09/05 14:17:30 UTC at 15:56:34
  WAVEWATCH III calculating for 2008/09/05 14:20:00 UTC at 15:56:35
  WAVEWATCH III calculating for 2008/09/05 14:22:30 UTC at 15:56:36
  WAVEWATCH III calculating for 2008/09/05 14:25:00 UTC at 15:56:36
  WAVEWATCH III calculating for 2008/09/05 14:27:30 UTC at 15:56:37
  WAVEWATCH III calculating for 2008/09/05 14:30:00 UTC at 15:56:38
  WAVEWATCH III calculating for 2008/09/05 14:32:30 UTC at 15:56:39
  WAVEWATCH III calculating for 2008/09/05 14:35:00 UTC at 15:56:39
  WAVEWATCH III calculating for 2008/09/05 14:37:30 UTC at 15:56:40
  WAVEWATCH III calculating for 2008/09/05 14:40:00 UTC at 15:56:41
  WAVEWATCH III calculating for 2008/09/05 14:42:30 UTC at 15:56:42
  WAVEWATCH III calculating for 2008/09/05 14:45:00 UTC at 15:56:43
  WAVEWATCH III calculating for 2008/09/05 14:47:30 UTC at 15:56:43
  WAVEWATCH III calculating for 2008/09/05 14:50:00 UTC at 15:56:44
  WAVEWATCH III calculating for 2008/09/05 14:52:30 UTC at 15:56:45
  WAVEWATCH III calculating for 2008/09/05 14:55:00 UTC at 15:56:46
  WAVEWATCH III calculating for 2008/09/05 14:57:30 UTC at 15:56:47
  WAVEWATCH III calculating for 2008/09/05 15:00:00 UTC at 15:56:48
  WAVEWATCH III calculating for 2008/09/05 15:02:30 UTC at 15:56:48
  WAVEWATCH III calculating for 2008/09/05 15:05:00 UTC at 15:56:49
  WAVEWATCH III calculating for 2008/09/05 15:07:30 UTC at 15:56:50
  WAVEWATCH III calculating for 2008/09/05 15:10:00 UTC at 15:56:51
  WAVEWATCH III calculating for 2008/09/05 15:12:30 UTC at 15:56:51
  WAVEWATCH III calculating for 2008/09/05 15:15:00 UTC at 15:56:52
  WAVEWATCH III calculating for 2008/09/05 15:17:30 UTC at 15:56:53
  WAVEWATCH III calculating for 2008/09/05 15:20:00 UTC at 15:56:54
  WAVEWATCH III calculating for 2008/09/05 15:22:30 UTC at 15:56:54
  WAVEWATCH III calculating for 2008/09/05 15:25:00 UTC at 15:56:55
  WAVEWATCH III calculating for 2008/09/05 15:27:30 UTC at 15:56:56
  WAVEWATCH III calculating for 2008/09/05 15:30:00 UTC at 15:56:57
  WAVEWATCH III calculating for 2008/09/05 15:32:30 UTC at 15:56:57
  WAVEWATCH III calculating for 2008/09/05 15:35:00 UTC at 15:56:58
  WAVEWATCH III calculating for 2008/09/05 15:37:30 UTC at 15:56:59
  WAVEWATCH III calculating for 2008/09/05 15:40:00 UTC at 15:56:59
  WAVEWATCH III calculating for 2008/09/05 15:42:30 UTC at 15:57:00
  WAVEWATCH III calculating for 2008/09/05 15:45:00 UTC at 15:57:01
  WAVEWATCH III calculating for 2008/09/05 15:47:30 UTC at 15:57:02
  WAVEWATCH III calculating for 2008/09/05 15:50:00 UTC at 15:57:02
  WAVEWATCH III calculating for 2008/09/05 15:52:30 UTC at 15:57:03
  WAVEWATCH III calculating for 2008/09/05 15:55:00 UTC at 15:57:04
  WAVEWATCH III calculating for 2008/09/05 15:57:30 UTC at 15:57:05
  WAVEWATCH III calculating for 2008/09/05 16:00:00 UTC at 15:57:05
  WAVEWATCH III calculating for 2008/09/05 16:02:30 UTC at 15:57:06
  WAVEWATCH III calculating for 2008/09/05 16:05:00 UTC at 15:57:07
  WAVEWATCH III calculating for 2008/09/05 16:07:30 UTC at 15:57:08
  WAVEWATCH III calculating for 2008/09/05 16:10:00 UTC at 15:57:08
  WAVEWATCH III calculating for 2008/09/05 16:12:30 UTC at 15:57:09
  WAVEWATCH III calculating for 2008/09/05 16:15:00 UTC at 15:57:10
  WAVEWATCH III calculating for 2008/09/05 16:17:30 UTC at 15:57:11
  WAVEWATCH III calculating for 2008/09/05 16:20:00 UTC at 15:57:12
  WAVEWATCH III calculating for 2008/09/05 16:22:30 UTC at 15:57:12
  WAVEWATCH III calculating for 2008/09/05 16:25:00 UTC at 15:57:13
  WAVEWATCH III calculating for 2008/09/05 16:27:30 UTC at 15:57:14
  WAVEWATCH III calculating for 2008/09/05 16:30:00 UTC at 15:57:15
  WAVEWATCH III calculating for 2008/09/05 16:32:30 UTC at 15:57:15
  WAVEWATCH III calculating for 2008/09/05 16:35:00 UTC at 15:57:16
  WAVEWATCH III calculating for 2008/09/05 16:37:30 UTC at 15:57:17
  WAVEWATCH III calculating for 2008/09/05 16:40:00 UTC at 15:57:18
  WAVEWATCH III calculating for 2008/09/05 16:42:30 UTC at 15:57:18
  WAVEWATCH III calculating for 2008/09/05 16:45:00 UTC at 15:57:19
  WAVEWATCH III calculating for 2008/09/05 16:47:30 UTC at 15:57:20
  WAVEWATCH III calculating for 2008/09/05 16:50:00 UTC at 15:57:21
  WAVEWATCH III calculating for 2008/09/05 16:52:30 UTC at 15:57:21
  WAVEWATCH III calculating for 2008/09/05 16:55:00 UTC at 15:57:22
  WAVEWATCH III calculating for 2008/09/05 16:57:30 UTC at 15:57:23
  WAVEWATCH III calculating for 2008/09/05 17:00:00 UTC at 15:57:24
  WAVEWATCH III calculating for 2008/09/05 17:02:30 UTC at 15:57:25
  WAVEWATCH III calculating for 2008/09/05 17:05:00 UTC at 15:57:25
  WAVEWATCH III calculating for 2008/09/05 17:07:30 UTC at 15:57:26
  WAVEWATCH III calculating for 2008/09/05 17:10:00 UTC at 15:57:27
  WAVEWATCH III calculating for 2008/09/05 17:12:30 UTC at 15:57:28
  WAVEWATCH III calculating for 2008/09/05 17:15:00 UTC at 15:57:28
  WAVEWATCH III calculating for 2008/09/05 17:17:30 UTC at 15:57:29
  WAVEWATCH III calculating for 2008/09/05 17:20:00 UTC at 15:57:30
  WAVEWATCH III calculating for 2008/09/05 17:22:30 UTC at 15:57:31
  WAVEWATCH III calculating for 2008/09/05 17:25:00 UTC at 15:57:31
  WAVEWATCH III calculating for 2008/09/05 17:27:30 UTC at 15:57:32
  WAVEWATCH III calculating for 2008/09/05 17:30:00 UTC at 15:57:33
  WAVEWATCH III calculating for 2008/09/05 17:32:30 UTC at 15:57:34
  WAVEWATCH III calculating for 2008/09/05 17:35:00 UTC at 15:57:35
  WAVEWATCH III calculating for 2008/09/05 17:37:30 UTC at 15:57:35
  WAVEWATCH III calculating for 2008/09/05 17:40:00 UTC at 15:57:36
  WAVEWATCH III calculating for 2008/09/05 17:42:30 UTC at 15:57:37
  WAVEWATCH III calculating for 2008/09/05 17:45:00 UTC at 15:57:37
  WAVEWATCH III calculating for 2008/09/05 17:47:30 UTC at 15:57:38
  WAVEWATCH III calculating for 2008/09/05 17:50:00 UTC at 15:57:39
  WAVEWATCH III calculating for 2008/09/05 17:52:30 UTC at 15:57:40
  WAVEWATCH III calculating for 2008/09/05 17:55:00 UTC at 15:57:40
  WAVEWATCH III calculating for 2008/09/05 17:57:30 UTC at 15:57:41
  WAVEWATCH III calculating for 2008/09/05 18:00:00 UTC at 15:57:42
  WAVEWATCH III reached the end of a computation loop at 15:57:43

  Updating input at 2008/09/05 18:00:00 UTC
     Updating winds        
  
  WAVEWATCH III calculating for 2008/09/05 18:02:30 UTC at 15:57:43
  WAVEWATCH III calculating for 2008/09/05 18:05:00 UTC at 15:57:44
  WAVEWATCH III calculating for 2008/09/05 18:07:30 UTC at 15:57:44
  WAVEWATCH III calculating for 2008/09/05 18:10:00 UTC at 15:57:45
  WAVEWATCH III calculating for 2008/09/05 18:12:30 UTC at 15:57:46
  WAVEWATCH III calculating for 2008/09/05 18:15:00 UTC at 15:57:46
  WAVEWATCH III calculating for 2008/09/05 18:17:30 UTC at 15:57:47
  WAVEWATCH III calculating for 2008/09/05 18:20:00 UTC at 15:57:48
  WAVEWATCH III calculating for 2008/09/05 18:22:30 UTC at 15:57:49
  WAVEWATCH III calculating for 2008/09/05 18:25:00 UTC at 15:57:50
  WAVEWATCH III calculating for 2008/09/05 18:27:30 UTC at 15:57:51
  WAVEWATCH III calculating for 2008/09/05 18:30:00 UTC at 15:57:51
  WAVEWATCH III calculating for 2008/09/05 18:32:30 UTC at 15:57:52
  WAVEWATCH III calculating for 2008/09/05 18:35:00 UTC at 15:57:53
  WAVEWATCH III calculating for 2008/09/05 18:37:30 UTC at 15:57:53
  WAVEWATCH III calculating for 2008/09/05 18:40:00 UTC at 15:57:54
  WAVEWATCH III calculating for 2008/09/05 18:42:30 UTC at 15:57:55
  WAVEWATCH III calculating for 2008/09/05 18:45:00 UTC at 15:57:56
  WAVEWATCH III calculating for 2008/09/05 18:47:30 UTC at 15:57:57
  WAVEWATCH III calculating for 2008/09/05 18:50:00 UTC at 15:57:57
  WAVEWATCH III calculating for 2008/09/05 18:52:30 UTC at 15:57:58
  WAVEWATCH III calculating for 2008/09/05 18:55:00 UTC at 15:57:59
  WAVEWATCH III calculating for 2008/09/05 18:57:30 UTC at 15:57:59
  WAVEWATCH III calculating for 2008/09/05 19:00:00 UTC at 15:58:00
  WAVEWATCH III calculating for 2008/09/05 19:02:30 UTC at 15:58:01
  WAVEWATCH III calculating for 2008/09/05 19:05:00 UTC at 15:58:02
  WAVEWATCH III calculating for 2008/09/05 19:07:30 UTC at 15:58:03
  WAVEWATCH III calculating for 2008/09/05 19:10:00 UTC at 15:58:03
  WAVEWATCH III calculating for 2008/09/05 19:12:30 UTC at 15:58:04
  WAVEWATCH III calculating for 2008/09/05 19:15:00 UTC at 15:58:05
  WAVEWATCH III calculating for 2008/09/05 19:17:30 UTC at 15:58:05
  WAVEWATCH III calculating for 2008/09/05 19:20:00 UTC at 15:58:06
  WAVEWATCH III calculating for 2008/09/05 19:22:30 UTC at 15:58:07
  WAVEWATCH III calculating for 2008/09/05 19:25:00 UTC at 15:58:08
  WAVEWATCH III calculating for 2008/09/05 19:27:30 UTC at 15:58:08
  WAVEWATCH III calculating for 2008/09/05 19:30:00 UTC at 15:58:09
  WAVEWATCH III calculating for 2008/09/05 19:32:30 UTC at 15:58:10
  WAVEWATCH III calculating for 2008/09/05 19:35:00 UTC at 15:58:10
  WAVEWATCH III calculating for 2008/09/05 19:37:30 UTC at 15:58:11
  WAVEWATCH III calculating for 2008/09/05 19:40:00 UTC at 15:58:12
  WAVEWATCH III calculating for 2008/09/05 19:42:30 UTC at 15:58:13
  WAVEWATCH III calculating for 2008/09/05 19:45:00 UTC at 15:58:13
  WAVEWATCH III calculating for 2008/09/05 19:47:30 UTC at 15:58:14
  WAVEWATCH III calculating for 2008/09/05 19:50:00 UTC at 15:58:15
  WAVEWATCH III calculating for 2008/09/05 19:52:30 UTC at 15:58:16
  WAVEWATCH III calculating for 2008/09/05 19:55:00 UTC at 15:58:17
  WAVEWATCH III calculating for 2008/09/05 19:57:30 UTC at 15:58:17
  WAVEWATCH III calculating for 2008/09/05 20:00:00 UTC at 15:58:18
  WAVEWATCH III calculating for 2008/09/05 20:02:30 UTC at 15:58:19
  WAVEWATCH III calculating for 2008/09/05 20:05:00 UTC at 15:58:20
  WAVEWATCH III calculating for 2008/09/05 20:07:30 UTC at 15:58:20
  WAVEWATCH III calculating for 2008/09/05 20:10:00 UTC at 15:58:21
  WAVEWATCH III calculating for 2008/09/05 20:12:30 UTC at 15:58:22
  WAVEWATCH III calculating for 2008/09/05 20:15:00 UTC at 15:58:23
  WAVEWATCH III calculating for 2008/09/05 20:17:30 UTC at 15:58:24
  WAVEWATCH III calculating for 2008/09/05 20:20:00 UTC at 15:58:24
  WAVEWATCH III calculating for 2008/09/05 20:22:30 UTC at 15:58:25
  WAVEWATCH III calculating for 2008/09/05 20:25:00 UTC at 15:58:26
  WAVEWATCH III calculating for 2008/09/05 20:27:30 UTC at 15:58:27
  WAVEWATCH III calculating for 2008/09/05 20:30:00 UTC at 15:58:27
  WAVEWATCH III calculating for 2008/09/05 20:32:30 UTC at 15:58:28
  WAVEWATCH III calculating for 2008/09/05 20:35:00 UTC at 15:58:29
  WAVEWATCH III calculating for 2008/09/05 20:37:30 UTC at 15:58:30
  WAVEWATCH III calculating for 2008/09/05 20:40:00 UTC at 15:58:30
  WAVEWATCH III calculating for 2008/09/05 20:42:30 UTC at 15:58:31
  WAVEWATCH III calculating for 2008/09/05 20:45:00 UTC at 15:58:32
  WAVEWATCH III calculating for 2008/09/05 20:47:30 UTC at 15:58:33
  WAVEWATCH III calculating for 2008/09/05 20:50:00 UTC at 15:58:33
  WAVEWATCH III calculating for 2008/09/05 20:52:30 UTC at 15:58:34
  WAVEWATCH III calculating for 2008/09/05 20:55:00 UTC at 15:58:35
  WAVEWATCH III calculating for 2008/09/05 20:57:30 UTC at 15:58:36
  WAVEWATCH III calculating for 2008/09/05 21:00:00 UTC at 15:58:36
  WAVEWATCH III calculating for 2008/09/05 21:02:30 UTC at 15:58:37
  WAVEWATCH III calculating for 2008/09/05 21:05:00 UTC at 15:58:38
  WAVEWATCH III calculating for 2008/09/05 21:07:30 UTC at 15:58:39
  WAVEWATCH III calculating for 2008/09/05 21:10:00 UTC at 15:58:40
  WAVEWATCH III calculating for 2008/09/05 21:12:30 UTC at 15:58:40
  WAVEWATCH III calculating for 2008/09/05 21:15:00 UTC at 15:58:41
  WAVEWATCH III calculating for 2008/09/05 21:17:30 UTC at 15:58:42
  WAVEWATCH III calculating for 2008/09/05 21:20:00 UTC at 15:58:42
  WAVEWATCH III calculating for 2008/09/05 21:22:30 UTC at 15:58:43
  WAVEWATCH III calculating for 2008/09/05 21:25:00 UTC at 15:58:44
  WAVEWATCH III calculating for 2008/09/05 21:27:30 UTC at 15:58:45
  WAVEWATCH III calculating for 2008/09/05 21:30:00 UTC at 15:58:45
  WAVEWATCH III calculating for 2008/09/05 21:32:30 UTC at 15:58:46
  WAVEWATCH III calculating for 2008/09/05 21:35:00 UTC at 15:58:47
  WAVEWATCH III calculating for 2008/09/05 21:37:30 UTC at 15:58:48
  WAVEWATCH III calculating for 2008/09/05 21:40:00 UTC at 15:58:48
  WAVEWATCH III calculating for 2008/09/05 21:42:30 UTC at 15:58:49
  WAVEWATCH III calculating for 2008/09/05 21:45:00 UTC at 15:58:50
  WAVEWATCH III calculating for 2008/09/05 21:47:30 UTC at 15:58:51
  WAVEWATCH III calculating for 2008/09/05 21:50:00 UTC at 15:58:51
  WAVEWATCH III calculating for 2008/09/05 21:52:30 UTC at 15:58:52
  WAVEWATCH III calculating for 2008/09/05 21:55:00 UTC at 15:58:53
  WAVEWATCH III calculating for 2008/09/05 21:57:30 UTC at 15:58:54
  WAVEWATCH III calculating for 2008/09/05 22:00:00 UTC at 15:58:55
  WAVEWATCH III calculating for 2008/09/05 22:02:30 UTC at 15:58:56
  WAVEWATCH III calculating for 2008/09/05 22:05:00 UTC at 15:58:56
  WAVEWATCH III calculating for 2008/09/05 22:07:30 UTC at 15:58:57
  WAVEWATCH III calculating for 2008/09/05 22:10:00 UTC at 15:58:58
  WAVEWATCH III calculating for 2008/09/05 22:12:30 UTC at 15:58:58
  WAVEWATCH III calculating for 2008/09/05 22:15:00 UTC at 15:58:59
  WAVEWATCH III calculating for 2008/09/05 22:17:30 UTC at 15:59:00
  WAVEWATCH III calculating for 2008/09/05 22:20:00 UTC at 15:59:01
  WAVEWATCH III calculating for 2008/09/05 22:22:30 UTC at 15:59:02
  WAVEWATCH III calculating for 2008/09/05 22:25:00 UTC at 15:59:02
  WAVEWATCH III calculating for 2008/09/05 22:27:30 UTC at 15:59:03
  WAVEWATCH III calculating for 2008/09/05 22:30:00 UTC at 15:59:04
  WAVEWATCH III calculating for 2008/09/05 22:32:30 UTC at 15:59:05
  WAVEWATCH III calculating for 2008/09/05 22:35:00 UTC at 15:59:05
  WAVEWATCH III calculating for 2008/09/05 22:37:30 UTC at 15:59:06
  WAVEWATCH III calculating for 2008/09/05 22:40:00 UTC at 15:59:07
  WAVEWATCH III calculating for 2008/09/05 22:42:30 UTC at 15:59:08
  WAVEWATCH III calculating for 2008/09/05 22:45:00 UTC at 15:59:09
  WAVEWATCH III calculating for 2008/09/05 22:47:30 UTC at 15:59:10
  WAVEWATCH III calculating for 2008/09/05 22:50:00 UTC at 15:59:10
  WAVEWATCH III calculating for 2008/09/05 22:52:30 UTC at 15:59:11
  WAVEWATCH III calculating for 2008/09/05 22:55:00 UTC at 15:59:12
  WAVEWATCH III calculating for 2008/09/05 22:57:30 UTC at 15:59:13
  WAVEWATCH III calculating for 2008/09/05 23:00:00 UTC at 15:59:13
  WAVEWATCH III reached the end of a computation loop at 15:59:14

  Updating input at 2008/09/05 23:00:00 UTC
     Updating winds        
  
  WAVEWATCH III calculating for 2008/09/05 23:02:30 UTC at 15:59:14
  WAVEWATCH III calculating for 2008/09/05 23:05:00 UTC at 15:59:15
  WAVEWATCH III calculating for 2008/09/05 23:07:30 UTC at 15:59:16
  WAVEWATCH III calculating for 2008/09/05 23:10:00 UTC at 15:59:17
  WAVEWATCH III calculating for 2008/09/05 23:12:30 UTC at 15:59:17
  WAVEWATCH III calculating for 2008/09/05 23:15:00 UTC at 15:59:18
  WAVEWATCH III calculating for 2008/09/05 23:17:30 UTC at 15:59:19
  WAVEWATCH III calculating for 2008/09/05 23:20:00 UTC at 15:59:20
  WAVEWATCH III calculating for 2008/09/05 23:22:30 UTC at 15:59:20
  WAVEWATCH III calculating for 2008/09/05 23:25:00 UTC at 15:59:22
  WAVEWATCH III calculating for 2008/09/05 23:27:30 UTC at 15:59:22
  WAVEWATCH III calculating for 2008/09/05 23:30:00 UTC at 15:59:23
  WAVEWATCH III calculating for 2008/09/05 23:32:30 UTC at 15:59:24
  WAVEWATCH III calculating for 2008/09/05 23:35:00 UTC at 15:59:25
  WAVEWATCH III calculating for 2008/09/05 23:37:30 UTC at 15:59:25
  WAVEWATCH III calculating for 2008/09/05 23:40:00 UTC at 15:59:26
  WAVEWATCH III calculating for 2008/09/05 23:42:30 UTC at 15:59:27
  WAVEWATCH III calculating for 2008/09/05 23:45:00 UTC at 15:59:28
  WAVEWATCH III calculating for 2008/09/05 23:47:30 UTC at 15:59:28
  WAVEWATCH III calculating for 2008/09/05 23:50:00 UTC at 15:59:29
  WAVEWATCH III calculating for 2008/09/05 23:52:30 UTC at 15:59:30
  WAVEWATCH III calculating for 2008/09/05 23:55:00 UTC at 15:59:31
  WAVEWATCH III calculating for 2008/09/05 23:57:30 UTC at 15:59:32
  WAVEWATCH III calculating for 2008/09/06 00:00:00 UTC at 15:59:32
  WAVEWATCH III calculating for 2008/09/06 00:02:30 UTC at 15:59:33
  WAVEWATCH III calculating for 2008/09/06 00:05:00 UTC at 15:59:34
  WAVEWATCH III calculating for 2008/09/06 00:07:30 UTC at 15:59:35
  WAVEWATCH III calculating for 2008/09/06 00:10:00 UTC at 15:59:36
  WAVEWATCH III calculating for 2008/09/06 00:12:30 UTC at 15:59:36
[...]
  WAVEWATCH III calculating for 2008/09/11 15:05:00 UTC at 16:46:44
  WAVEWATCH III calculating for 2008/09/11 15:07:30 UTC at 16:46:45
  WAVEWATCH III calculating for 2008/09/11 15:10:00 UTC at 16:46:46
  WAVEWATCH III calculating for 2008/09/11 15:12:30 UTC at 16:46:47
  WAVEWATCH III calculating for 2008/09/11 15:15:00 UTC at 16:46:47
  WAVEWATCH III calculating for 2008/09/11 15:17:30 UTC at 16:46:48
  WAVEWATCH III calculating for 2008/09/11 15:20:00 UTC at 16:46:49
  WAVEWATCH III calculating for 2008/09/11 15:22:30 UTC at 16:46:50
  WAVEWATCH III calculating for 2008/09/11 15:25:00 UTC at 16:46:50
  WAVEWATCH III calculating for 2008/09/11 15:27:30 UTC at 16:46:51
  WAVEWATCH III calculating for 2008/09/11 15:30:00 UTC at 16:46:52
  WAVEWATCH III calculating for 2008/09/11 15:32:30 UTC at 16:46:53
  WAVEWATCH III calculating for 2008/09/11 15:35:00 UTC at 16:46:53
  WAVEWATCH III calculating for 2008/09/11 15:37:30 UTC at 16:46:54
  WAVEWATCH III calculating for 2008/09/11 15:40:00 UTC at 16:46:55
  WAVEWATCH III calculating for 2008/09/11 15:42:30 UTC at 16:46:56
  WAVEWATCH III calculating for 2008/09/11 15:45:00 UTC at 16:46:57
  WAVEWATCH III calculating for 2008/09/11 15:47:30 UTC at 16:46:57
  WAVEWATCH III calculating for 2008/09/11 15:50:00 UTC at 16:46:58
  WAVEWATCH III calculating for 2008/09/11 15:52:30 UTC at 16:46:59
  WAVEWATCH III calculating for 2008/09/11 15:55:00 UTC at 16:47:00
  WAVEWATCH III calculating for 2008/09/11 15:57:30 UTC at 16:47:00
  WAVEWATCH III calculating for 2008/09/11 16:00:00 UTC at 16:47:01
  WAVEWATCH III calculating for 2008/09/11 16:02:30 UTC at 16:47:02
  WAVEWATCH III calculating for 2008/09/11 16:05:00 UTC at 16:47:03
  WAVEWATCH III calculating for 2008/09/11 16:07:30 UTC at 16:47:03
  WAVEWATCH III calculating for 2008/09/11 16:10:00 UTC at 16:47:04
  WAVEWATCH III calculating for 2008/09/11 16:12:30 UTC at 16:47:05
  WAVEWATCH III calculating for 2008/09/11 16:15:00 UTC at 16:47:06
  WAVEWATCH III calculating for 2008/09/11 16:17:30 UTC at 16:47:06
  WAVEWATCH III calculating for 2008/09/11 16:20:00 UTC at 16:47:07
  WAVEWATCH III calculating for 2008/09/11 16:22:30 UTC at 16:47:08
  WAVEWATCH III calculating for 2008/09/11 16:25:00 UTC at 16:47:09
  WAVEWATCH III calculating for 2008/09/11 16:27:30 UTC at 16:47:10
  WAVEWATCH III calculating for 2008/09/11 16:30:00 UTC at 16:47:10
  WAVEWATCH III calculating for 2008/09/11 16:32:30 UTC at 16:47:11
  WAVEWATCH III calculating for 2008/09/11 16:35:00 UTC at 16:47:12
  WAVEWATCH III calculating for 2008/09/11 16:37:30 UTC at 16:47:13
  WAVEWATCH III calculating for 2008/09/11 16:40:00 UTC at 16:47:13
  WAVEWATCH III calculating for 2008/09/11 16:42:30 UTC at 16:47:14
  WAVEWATCH III calculating for 2008/09/11 16:45:00 UTC at 16:47:15
  WAVEWATCH III calculating for 2008/09/11 16:47:30 UTC at 16:47:16
  WAVEWATCH III calculating for 2008/09/11 16:50:00 UTC at 16:47:16
  WAVEWATCH III calculating for 2008/09/11 16:52:30 UTC at 16:47:17
  WAVEWATCH III calculating for 2008/09/11 16:55:00 UTC at 16:47:18
  WAVEWATCH III calculating for 2008/09/11 16:57:30 UTC at 16:47:19
  WAVEWATCH III calculating for 2008/09/11 17:00:00 UTC at 16:47:20
  WAVEWATCH III calculating for 2008/09/11 17:02:30 UTC at 16:47:20
  WAVEWATCH III calculating for 2008/09/11 17:05:00 UTC at 16:47:21
  WAVEWATCH III calculating for 2008/09/11 17:07:30 UTC at 16:47:22
  WAVEWATCH III calculating for 2008/09/11 17:10:00 UTC at 16:47:23
  WAVEWATCH III calculating for 2008/09/11 17:12:30 UTC at 16:47:24
  WAVEWATCH III calculating for 2008/09/11 17:15:00 UTC at 16:47:24
  WAVEWATCH III calculating for 2008/09/11 17:17:30 UTC at 16:47:25
  WAVEWATCH III calculating for 2008/09/11 17:20:00 UTC at 16:47:26
  WAVEWATCH III calculating for 2008/09/11 17:22:30 UTC at 16:47:27
  WAVEWATCH III calculating for 2008/09/11 17:25:00 UTC at 16:47:27
  WAVEWATCH III calculating for 2008/09/11 17:27:30 UTC at 16:47:28
  WAVEWATCH III calculating for 2008/09/11 17:30:00 UTC at 16:47:29
  WAVEWATCH III calculating for 2008/09/11 17:32:30 UTC at 16:47:30
  WAVEWATCH III calculating for 2008/09/11 17:35:00 UTC at 16:47:31
  WAVEWATCH III calculating for 2008/09/11 17:37:30 UTC at 16:47:31
  WAVEWATCH III calculating for 2008/09/11 17:40:00 UTC at 16:47:32
  WAVEWATCH III calculating for 2008/09/11 17:42:30 UTC at 16:47:33
  WAVEWATCH III calculating for 2008/09/11 17:45:00 UTC at 16:47:33
  WAVEWATCH III calculating for 2008/09/11 17:47:30 UTC at 16:47:34
  WAVEWATCH III calculating for 2008/09/11 17:50:00 UTC at 16:47:35
  WAVEWATCH III calculating for 2008/09/11 17:52:30 UTC at 16:47:36
  WAVEWATCH III calculating for 2008/09/11 17:55:00 UTC at 16:47:37
  WAVEWATCH III calculating for 2008/09/11 17:57:30 UTC at 16:47:37
  WAVEWATCH III calculating for 2008/09/11 18:00:00 UTC at 16:47:38
  WAVEWATCH III calculating for 2008/09/11 18:02:30 UTC at 16:47:39
  WAVEWATCH III calculating for 2008/09/11 18:05:00 UTC at 16:47:40
  WAVEWATCH III calculating for 2008/09/11 18:07:30 UTC at 16:47:40
  WAVEWATCH III calculating for 2008/09/11 18:10:00 UTC at 16:47:41
  WAVEWATCH III calculating for 2008/09/11 18:12:30 UTC at 16:47:42
  WAVEWATCH III calculating for 2008/09/11 18:15:00 UTC at 16:47:43
  WAVEWATCH III calculating for 2008/09/11 18:17:30 UTC at 16:47:43
  WAVEWATCH III calculating for 2008/09/11 18:20:00 UTC at 16:47:44
  WAVEWATCH III calculating for 2008/09/11 18:22:30 UTC at 16:47:45
  WAVEWATCH III calculating for 2008/09/11 18:25:00 UTC at 16:47:46
  WAVEWATCH III calculating for 2008/09/11 18:27:30 UTC at 16:47:46
  WAVEWATCH III calculating for 2008/09/11 18:30:00 UTC at 16:47:47
  WAVEWATCH III calculating for 2008/09/11 18:32:30 UTC at 16:47:48
  WAVEWATCH III calculating for 2008/09/11 18:35:00 UTC at 16:47:49
  WAVEWATCH III calculating for 2008/09/11 18:37:30 UTC at 16:47:49
  WAVEWATCH III calculating for 2008/09/11 18:40:00 UTC at 16:47:50
  WAVEWATCH III calculating for 2008/09/11 18:42:30 UTC at 16:47:51
  WAVEWATCH III calculating for 2008/09/11 18:45:00 UTC at 16:47:52
  WAVEWATCH III calculating for 2008/09/11 18:47:30 UTC at 16:47:52
  WAVEWATCH III calculating for 2008/09/11 18:50:00 UTC at 16:47:53
  WAVEWATCH III calculating for 2008/09/11 18:52:30 UTC at 16:47:54
  WAVEWATCH III calculating for 2008/09/11 18:55:00 UTC at 16:47:55
  WAVEWATCH III calculating for 2008/09/11 18:57:30 UTC at 16:47:55
  WAVEWATCH III calculating for 2008/09/11 19:00:00 UTC at 16:47:56
  WAVEWATCH III reached the end of a computation loop at 16:47:57

  Updating input at 2008/09/11 19:00:00 UTC
     Updating winds        
  
  WAVEWATCH III calculating for 2008/09/11 19:02:30 UTC at 16:47:57
  WAVEWATCH III calculating for 2008/09/11 19:05:00 UTC at 16:47:58
  WAVEWATCH III calculating for 2008/09/11 19:07:30 UTC at 16:47:59
  WAVEWATCH III calculating for 2008/09/11 19:10:00 UTC at 16:48:00
  WAVEWATCH III calculating for 2008/09/11 19:12:30 UTC at 16:48:00
  WAVEWATCH III calculating for 2008/09/11 19:15:00 UTC at 16:48:01
  WAVEWATCH III calculating for 2008/09/11 19:17:30 UTC at 16:48:02
  WAVEWATCH III calculating for 2008/09/11 19:20:00 UTC at 16:48:03
  WAVEWATCH III calculating for 2008/09/11 19:22:30 UTC at 16:48:03
  WAVEWATCH III calculating for 2008/09/11 19:25:00 UTC at 16:48:04
  WAVEWATCH III calculating for 2008/09/11 19:27:30 UTC at 16:48:05
  WAVEWATCH III calculating for 2008/09/11 19:30:00 UTC at 16:48:06
  WAVEWATCH III calculating for 2008/09/11 19:32:30 UTC at 16:48:06
  WAVEWATCH III calculating for 2008/09/11 19:35:00 UTC at 16:48:07
  WAVEWATCH III calculating for 2008/09/11 19:37:30 UTC at 16:48:08
  WAVEWATCH III calculating for 2008/09/11 19:40:00 UTC at 16:48:09
  WAVEWATCH III calculating for 2008/09/11 19:42:30 UTC at 16:48:10
  WAVEWATCH III calculating for 2008/09/11 19:45:00 UTC at 16:48:11
  WAVEWATCH III calculating for 2008/09/11 19:47:30 UTC at 16:48:12
  WAVEWATCH III calculating for 2008/09/11 19:50:00 UTC at 16:48:12
  WAVEWATCH III calculating for 2008/09/11 19:52:30 UTC at 16:48:13
  WAVEWATCH III calculating for 2008/09/11 19:55:00 UTC at 16:48:14
  WAVEWATCH III calculating for 2008/09/11 19:57:30 UTC at 16:48:15
  WAVEWATCH III calculating for 2008/09/11 20:00:00 UTC at 16:48:15
  WAVEWATCH III calculating for 2008/09/11 20:02:30 UTC at 16:48:16
  WAVEWATCH III calculating for 2008/09/11 20:05:00 UTC at 16:48:17
  WAVEWATCH III calculating for 2008/09/11 20:07:30 UTC at 16:48:18
  WAVEWATCH III calculating for 2008/09/11 20:10:00 UTC at 16:48:18
  WAVEWATCH III calculating for 2008/09/11 20:12:30 UTC at 16:48:19
  WAVEWATCH III calculating for 2008/09/11 20:15:00 UTC at 16:48:20
  WAVEWATCH III calculating for 2008/09/11 20:17:30 UTC at 16:48:21
  WAVEWATCH III calculating for 2008/09/11 20:20:00 UTC at 16:48:22
  WAVEWATCH III calculating for 2008/09/11 20:22:30 UTC at 16:48:23
  WAVEWATCH III calculating for 2008/09/11 20:25:00 UTC at 16:48:24
  WAVEWATCH III calculating for 2008/09/11 20:27:30 UTC at 16:48:25
  WAVEWATCH III calculating for 2008/09/11 20:30:00 UTC at 16:48:26
  WAVEWATCH III calculating for 2008/09/11 20:32:30 UTC at 16:48:27
  WAVEWATCH III calculating for 2008/09/11 20:35:00 UTC at 16:48:28
  WAVEWATCH III calculating for 2008/09/11 20:37:30 UTC at 16:48:28
  WAVEWATCH III calculating for 2008/09/11 20:40:00 UTC at 16:48:29
  WAVEWATCH III calculating for 2008/09/11 20:42:30 UTC at 16:48:30
  WAVEWATCH III calculating for 2008/09/11 20:45:00 UTC at 16:48:31
  WAVEWATCH III calculating for 2008/09/11 20:47:30 UTC at 16:48:31
  WAVEWATCH III calculating for 2008/09/11 20:50:00 UTC at 16:48:32
  WAVEWATCH III calculating for 2008/09/11 20:52:30 UTC at 16:48:33
  WAVEWATCH III calculating for 2008/09/11 20:55:00 UTC at 16:48:34
  WAVEWATCH III calculating for 2008/09/11 20:57:30 UTC at 16:48:34
  WAVEWATCH III calculating for 2008/09/11 21:00:00 UTC at 16:48:35
  WAVEWATCH III calculating for 2008/09/11 21:02:30 UTC at 16:48:36
  WAVEWATCH III calculating for 2008/09/11 21:05:00 UTC at 16:48:37
  WAVEWATCH III calculating for 2008/09/11 21:07:30 UTC at 16:48:38
  WAVEWATCH III calculating for 2008/09/11 21:10:00 UTC at 16:48:38
  WAVEWATCH III calculating for 2008/09/11 21:12:30 UTC at 16:48:39
  WAVEWATCH III calculating for 2008/09/11 21:15:00 UTC at 16:48:40
  WAVEWATCH III calculating for 2008/09/11 21:17:30 UTC at 16:48:41
  WAVEWATCH III calculating for 2008/09/11 21:20:00 UTC at 16:48:41
  WAVEWATCH III calculating for 2008/09/11 21:22:30 UTC at 16:48:42
  WAVEWATCH III calculating for 2008/09/11 21:25:00 UTC at 16:48:43
  WAVEWATCH III calculating for 2008/09/11 21:27:30 UTC at 16:48:44
  WAVEWATCH III calculating for 2008/09/11 21:30:00 UTC at 16:48:44
  WAVEWATCH III calculating for 2008/09/11 21:32:30 UTC at 16:48:45
  WAVEWATCH III calculating for 2008/09/11 21:35:00 UTC at 16:48:46
  WAVEWATCH III calculating for 2008/09/11 21:37:30 UTC at 16:48:47
  WAVEWATCH III calculating for 2008/09/11 21:40:00 UTC at 16:48:48
  WAVEWATCH III calculating for 2008/09/11 21:42:30 UTC at 16:48:48
  WAVEWATCH III calculating for 2008/09/11 21:45:00 UTC at 16:48:49
  WAVEWATCH III calculating for 2008/09/11 21:47:30 UTC at 16:48:50
  WAVEWATCH III calculating for 2008/09/11 21:50:00 UTC at 16:48:51
  WAVEWATCH III calculating for 2008/09/11 21:52:30 UTC at 16:48:51
  WAVEWATCH III calculating for 2008/09/11 21:55:00 UTC at 16:48:52
  WAVEWATCH III calculating for 2008/09/11 21:57:30 UTC at 16:48:53
  WAVEWATCH III calculating for 2008/09/11 22:00:00 UTC at 16:48:54
  WAVEWATCH III calculating for 2008/09/11 22:02:30 UTC at 16:48:55
  WAVEWATCH III calculating for 2008/09/11 22:05:00 UTC at 16:48:55
  WAVEWATCH III calculating for 2008/09/11 22:07:30 UTC at 16:48:56
  WAVEWATCH III calculating for 2008/09/11 22:10:00 UTC at 16:48:57
  WAVEWATCH III calculating for 2008/09/11 22:12:30 UTC at 16:48:57
  WAVEWATCH III calculating for 2008/09/11 22:15:00 UTC at 16:48:58
  WAVEWATCH III calculating for 2008/09/11 22:17:30 UTC at 16:48:59
  WAVEWATCH III calculating for 2008/09/11 22:20:00 UTC at 16:49:00
  WAVEWATCH III calculating for 2008/09/11 22:22:30 UTC at 16:49:01
  WAVEWATCH III calculating for 2008/09/11 22:25:00 UTC at 16:49:01
  WAVEWATCH III calculating for 2008/09/11 22:27:30 UTC at 16:49:02
  WAVEWATCH III calculating for 2008/09/11 22:30:00 UTC at 16:49:03
  WAVEWATCH III calculating for 2008/09/11 22:32:30 UTC at 16:49:04
  WAVEWATCH III calculating for 2008/09/11 22:35:00 UTC at 16:49:04
  WAVEWATCH III calculating for 2008/09/11 22:37:30 UTC at 16:49:05
  WAVEWATCH III calculating for 2008/09/11 22:40:00 UTC at 16:49:06
  WAVEWATCH III calculating for 2008/09/11 22:42:30 UTC at 16:49:07
  WAVEWATCH III calculating for 2008/09/11 22:45:00 UTC at 16:49:07
  WAVEWATCH III calculating for 2008/09/11 22:47:30 UTC at 16:49:08
  WAVEWATCH III calculating for 2008/09/11 22:50:00 UTC at 16:49:09
  WAVEWATCH III calculating for 2008/09/11 22:52:30 UTC at 16:49:10
  WAVEWATCH III calculating for 2008/09/11 22:55:00 UTC at 16:49:10
  WAVEWATCH III calculating for 2008/09/11 22:57:30 UTC at 16:49:11
  WAVEWATCH III calculating for 2008/09/11 23:00:00 UTC at 16:49:12
  WAVEWATCH III calculating for 2008/09/11 23:02:30 UTC at 16:49:13
  WAVEWATCH III calculating for 2008/09/11 23:05:00 UTC at 16:49:14
  WAVEWATCH III calculating for 2008/09/11 23:07:30 UTC at 16:49:14
  WAVEWATCH III calculating for 2008/09/11 23:10:00 UTC at 16:49:15
  WAVEWATCH III calculating for 2008/09/11 23:12:30 UTC at 16:49:16
  WAVEWATCH III calculating for 2008/09/11 23:15:00 UTC at 16:49:17
  WAVEWATCH III calculating for 2008/09/11 23:17:30 UTC at 16:49:17
  WAVEWATCH III calculating for 2008/09/11 23:20:00 UTC at 16:49:18
  WAVEWATCH III calculating for 2008/09/11 23:22:30 UTC at 16:49:19
  WAVEWATCH III calculating for 2008/09/11 23:25:00 UTC at 16:49:20
  WAVEWATCH III calculating for 2008/09/11 23:27:30 UTC at 16:49:20
  WAVEWATCH III calculating for 2008/09/11 23:30:00 UTC at 16:49:21
  WAVEWATCH III calculating for 2008/09/11 23:32:30 UTC at 16:49:22
  WAVEWATCH III calculating for 2008/09/11 23:35:00 UTC at 16:49:23
  WAVEWATCH III calculating for 2008/09/11 23:37:30 UTC at 16:49:23
  WAVEWATCH III calculating for 2008/09/11 23:40:00 UTC at 16:49:24
  WAVEWATCH III calculating for 2008/09/11 23:42:30 UTC at 16:49:25
  WAVEWATCH III calculating for 2008/09/11 23:45:00 UTC at 16:49:26
  WAVEWATCH III calculating for 2008/09/11 23:47:30 UTC at 16:49:26
  WAVEWATCH III calculating for 2008/09/11 23:50:00 UTC at 16:49:27
  WAVEWATCH III calculating for 2008/09/11 23:52:30 UTC at 16:49:28
  WAVEWATCH III calculating for 2008/09/11 23:55:00 UTC at 16:49:29
  WAVEWATCH III calculating for 2008/09/11 23:57:30 UTC at 16:49:30
  WAVEWATCH III calculating for 2008/09/12 00:00:00 UTC at 16:49:30
  WAVEWATCH III reached the end of a computation loop at 16:49:31

  Initialization time :      0.59 s
  Elapsed time        :   3635.64 s

  End of program 
 ====================================
         WAVEWATCH III Program shell 

 
+--------------------+
|    Point output    |
+--------------------+
 
 
                *****************************
              ***   WAVEWATCH III make      ***
                *****************************
 
Main directory    : /home/xychen/ADC-WW3-NWM-NEMS/WW3/model
Scratch directory : /home/xychen/ADC-WW3-NWM-NEMS/WW3/model/tmp
Save source codes : yes
Save listings     : yes
 
[INFO] list of the programs selected : ww3_outp
 
Processing ww3_outp
---------------------
ad3 : processing w3gdatmd 
ad3 : processing w3idatmd 
ad3 : processing w3odatmd 
ad3 : processing w3timemd 
ad3 : processing w3adatmd 
ad3 : processing w3dispmd 
ad3 : processing w3sbt4md 
ad3 : processing w3sdb1md 
ad3 : processing w3sln1md 
ad3 : processing wmmdatmd 
ad3 : processing w3flx1md 
ad3 : processing w3src4md 
ad3 : processing w3partmd 
ad3 : processing w3parall 
ad3 : processing w3snl1md 
ad3 : processing w3triamd 
ad3 : processing w3wdatmd 
ad3 : processing w3iogrmd 
ad3 : processing w3bullmd 
ad3 : processing w3iopomd 
ad3 : processing ww3_outp 
      Linking ww3_outp
 
 
                       **********************
                     *** end of compilation ***
                       **********************
 
   Processing /home/xychen/ADC-WW3-NWM-NEMS/WW3/regtests/ww3_tp2.17_shell/input/ww3_outp.inp
   Screen output routed to /home/xychen/ADC-WW3-NWM-NEMS/WW3/regtests/ww3_tp2.17_shell/work_a/ww3_outp.out
 
 
Files in /home/xychen/ADC-WW3-NWM-NEMS/WW3/regtests/ww3_tp2.17_shell/work_a :
 
total 567106
-rw-r--r-- 1 xychen storage-dhs-crc   614848 Sep  4 15:47 current.ww3
-rw-r--r-- 1 xychen storage-dhs-crc       29 Sep  4 16:50 finished
-rw-r--r-- 1 xychen storage-dhs-crc   307648 Sep  4 15:47 level.ww3
-rw-r--r-- 1 xychen storage-dhs-crc    16024 Sep  4 16:49 log.ww3
-rw-r--r-- 1 xychen storage-dhs-crc   307001 Sep  4 15:46 mapsta.ww3
-rw-r--r-- 1 xychen storage-dhs-crc     6202 Sep  4 15:46 mask.ww3
-rw-r--r-- 1 xychen storage-dhs-crc 32583371 Sep  4 15:47 mod_def.ww3
-rw-r--r-- 1 xychen storage-dhs-crc   118982 Sep  4 15:47 nest.ww3
-rw-r--r-- 1 xychen storage-dhs-crc 15716698 Sep  4 16:49 out_grd.ww3
-rw-r--r-- 1 xychen storage-dhs-crc  8463085 Sep  4 16:49 out_pnt.ww3
-rw-r--r-- 1 xychen storage-dhs-crc 14257152 Sep  4 16:42 restart001.ww3
-rw-r--r-- 1 xychen storage-dhs-crc 14257152 Sep  4 16:42 restart002.ww3
-rw-r--r-- 1 xychen storage-dhs-crc 14257152 Sep  4 16:42 restart003.ww3
-rw-r--r-- 1 xychen storage-dhs-crc 14257152 Sep  4 16:43 restart004.ww3
-rw-r--r-- 1 xychen storage-dhs-crc 14257152 Sep  4 16:43 restart005.ww3
-rw-r--r-- 1 xychen storage-dhs-crc 14257152 Sep  4 16:43 restart006.ww3
-rw-r--r-- 1 xychen storage-dhs-crc 14257152 Sep  4 16:44 restart007.ww3
-rw-r--r-- 1 xychen storage-dhs-crc 14257152 Sep  4 16:44 restart008.ww3
-rw-r--r-- 1 xychen storage-dhs-crc 14257152 Sep  4 16:44 restart009.ww3
-rw-r--r-- 1 xychen storage-dhs-crc 14257152 Sep  4 16:44 restart010.ww3
-rw-r--r-- 1 xychen storage-dhs-crc 14257152 Sep  4 16:45 restart011.ww3
-rw-r--r-- 1 xychen storage-dhs-crc 14257152 Sep  4 16:45 restart012.ww3
-rw-r--r-- 1 xychen storage-dhs-crc 14257152 Sep  4 16:45 restart013.ww3
-rw-r--r-- 1 xychen storage-dhs-crc 14257152 Sep  4 16:46 restart014.ww3
-rw-r--r-- 1 xychen storage-dhs-crc 14257152 Sep  4 16:46 restart015.ww3
-rw-r--r-- 1 xychen storage-dhs-crc 14257152 Sep  4 16:46 restart016.ww3
-rw-r--r-- 1 xychen storage-dhs-crc 14257152 Sep  4 16:47 restart017.ww3
-rw-r--r-- 1 xychen storage-dhs-crc 14257152 Sep  4 16:47 restart018.ww3
-rw-r--r-- 1 xychen storage-dhs-crc 14257152 Sep  4 16:47 restart019.ww3
-rw-r--r-- 1 xychen storage-dhs-crc 14257152 Sep  4 16:47 restart020.ww3
-rw-r--r-- 1 xychen storage-dhs-crc 14257152 Sep  4 16:48 restart021.ww3
-rw-r--r-- 1 xychen storage-dhs-crc 14257152 Sep  4 16:48 restart022.ww3
-rw-r--r-- 1 xychen storage-dhs-crc 14257152 Sep  4 16:48 restart023.ww3
-rw-r--r-- 1 xychen storage-dhs-crc 14257152 Sep  4 16:49 restart024.ww3
-rw-r--r-- 1 xychen storage-dhs-crc 14257152 Sep  4 16:49 restart025.ww3
-rw-r--r-- 1 xychen storage-dhs-crc  4222713 Sep  4 15:47 ST4TABUHF2.bin
-rw-r--r-- 1 xychen storage-dhs-crc  7082544 Sep  4 15:47 wind.ww3
-rw-r--r-- 1 xychen storage-dhs-crc      802 Sep  4 16:50 ww3.15121400.spc
-rw-r--r-- 1 xychen storage-dhs-crc    25466 Sep  4 15:47 ww3_bounc.out
-rw-r--r-- 1 xychen storage-dhs-crc    20850 Sep  4 15:47 ww3_grid_a.out
-rw-r--r-- 1 xychen storage-dhs-crc     1610 Sep  4 16:50 ww3_outp.out
-rw-r--r-- 1 xychen storage-dhs-crc     3910 Sep  4 15:47 ww3_prnc_current.out
-rw-r--r-- 1 xychen storage-dhs-crc     3873 Sep  4 15:47 ww3_prnc_level.out
-rw-r--r-- 1 xychen storage-dhs-crc    31262 Sep  4 15:47 ww3_prnc_wind.out
-rw-r--r-- 1 xychen storage-dhs-crc   307472 Sep  4 16:49 ww3_shel.out
 
 
                    ==================================   
                  ======>  END OF WAVEWATCH III  <====== 
                    ==================================   
 
